REMARK SMILES CNCc1ccc(-c2cc(-c3nc(-c4ccc(S(=O)(=O)C(C)C)cc4)cnc3N)on2)cc1
REMARK SMILES IDX 11 1 12 2 13 3 26 4 27 5 28 6 10 7 8 8 31 9 9 10 30 11 7 12
REMARK SMILES IDX 4 13 5 14 33 15 6 16 32 17 3 18 2 19 1 20 29 22 14 25 15 26
REMARK SMILES IDX 25 27 16 28 24 29 17 30 18 31 19 32 20 33 21 34 22 35 23 36
REMARK H PARENT 2 21 29 23 29 24
REMARK Flexibility Score: inf
ROOT
ATOM      1  C   UNL     1     -11.559  -5.018 -15.392  1.00  0.00     0.151 A 
ATOM      2  N   UNL     1     -11.465  -4.878 -14.041  1.00  0.00    -0.239 NA
ATOM      3  C   UNL     1     -12.331  -4.148 -13.286  1.00  0.00     0.090 A 
ATOM      4  C   UNL     1     -13.374  -3.479 -13.966  1.00  0.00     0.142 A 
ATOM      5  N   UNL     1     -13.495  -3.635 -15.309  1.00  0.00    -0.235 NA
ATOM      6  C   UNL     1     -12.639  -4.385 -16.048  1.00  0.00     0.153 A 
ENDROOT
BRANCH   1   7
ATOM      7  C   UNL     1     -10.589  -5.782 -16.062  1.00  0.00     0.189 A 
ATOM      8  C   UNL     1      -8.656  -6.594 -16.805  1.00  0.00     0.114 A 
ATOM      9  N   UNL     1      -9.682  -7.286 -17.338  1.00  0.00    -0.079 NA
ATOM     10  C   UNL     1      -9.214  -5.624 -15.979  1.00  0.00     0.085 A 
ATOM     11  O   UNL     1     -10.824  -6.806 -16.914  1.00  0.00    -0.354 OA
BRANCH   8  12
ATOM     12  C   UNL     1      -7.280  -6.827 -17.059  1.00  0.00     0.004 A 
ATOM     13  C   UNL     1      -4.509  -7.315 -17.564  1.00  0.00    -0.034 A 
ATOM     14  C   UNL     1      -4.987  -6.001 -17.358  1.00  0.00     0.006 A 
ATOM     15  C   UNL     1      -5.437  -8.381 -17.522  1.00  0.00     0.006 A 
ATOM     16  C   UNL     1      -6.348  -5.762 -17.094  1.00  0.00     0.011 A 
ATOM     17  C   UNL     1      -6.804  -8.139 -17.289  1.00  0.00     0.011 A 
BRANCH  13  18
ATOM     18  C   UNL     1      -3.066  -7.558 -17.841  1.00  0.00     0.116 C 
BRANCH  18  19
ATOM     19  N   UNL     1      -2.164  -6.935 -16.843  1.00  0.00    -0.316 NA
ATOM     20  C   UNL     1      -2.108  -7.606 -15.529  1.00  0.00     0.101 C 
ATOM     21  H   UNL     1      -1.623  -6.107 -17.045  1.00  0.00     0.122 HD
ENDBRANCH  18  19
ENDBRANCH  13  18
ENDBRANCH   8  12
ENDBRANCH   1   7
BRANCH   6  22
ATOM     22  N   UNL     1     -12.852  -4.476 -17.374  1.00  0.00    -0.382 N 
ATOM     23  H   UNL     1     -13.796  -4.511 -17.733  1.00  0.00     0.158 HD
ATOM     24  H   UNL     1     -12.068  -4.511 -18.010  1.00  0.00     0.158 HD
ENDBRANCH   6  22
BRANCH   3  25
ATOM     25  C   UNL     1     -12.186  -4.109 -11.873  1.00  0.00     0.002 A 
ATOM     26  C   UNL     1     -11.915  -5.295 -11.148  1.00  0.00     0.012 A 
ATOM     27  C   UNL     1     -12.336  -2.901 -11.151  1.00  0.00     0.012 A 
ATOM     28  C   UNL     1     -11.847  -5.282  -9.742  1.00  0.00     0.021 A 
ATOM     29  C   UNL     1     -12.251  -2.884  -9.747  1.00  0.00     0.021 A 
ATOM     30  C   UNL     1     -12.034  -4.079  -9.031  1.00  0.00     0.067 A 
BRANCH  30  31
ATOM     31  S   UNL     1     -12.011  -4.057  -7.258  1.00  0.00     0.180 S 
ATOM     32  O   UNL     1     -11.175  -5.306  -6.692  1.00  0.00    -0.223 OA
ATOM     33  O   UNL     1     -11.291  -2.721  -6.736  1.00  0.00    -0.223 OA
BRANCH  31  34
ATOM     34  C   UNL     1     -13.715  -4.116  -6.553  1.00  0.00     0.107 C 
ATOM     35  C   UNL     1     -14.562  -2.893  -6.986  1.00  0.00     0.025 C 
ATOM     36  C   UNL     1     -14.429  -5.450  -6.889  1.00  0.00     0.025 C 
ENDBRANCH  31  34
ENDBRANCH  30  31
ENDBRANCH   3  25
TORSDOF 8
