@<TRIPOS>MOLECULE

58 61 1
SMALL
USER_CHARGES
@<TRIPOS>ATOM
1	C1    -2.1080    -7.6063   -15.5286	C.3	1	LIG	-0.0161
2	N1    -2.1643    -6.9352   -16.8426	N.3	1	LIG	-0.3156
3	C2    -3.0664    -7.5578   -17.8406	C.3	1	LIG	0.0203
4	C3    -4.5089    -7.3152   -17.5644	C.2	1	LIG	-0.0332
5	C4    -4.9872    -6.0013   -17.3575	C.2	1	LIG	-0.0427
6	C5    -6.3484    -5.7617   -17.0939	C.2	1	LIG	-0.0253
7	C6    -7.2799    -6.8272   -17.0591	C.2	1	LIG	-0.0267
8	C7    -6.8038    -8.1392   -17.2893	C.2	1	LIG	-0.0253
9	C8    -5.4367    -8.3806   -17.5217	C.2	1	LIG	-0.0427
10	C9    -8.6561    -6.5940   -16.8055	C.2	1	LIG	0.0875
11	N2    -9.6824    -7.2857   -17.3383	N.2	1	LIG	-0.1462
12	O1   -10.8237    -6.8064   -16.9141	O.3	1	LIG	-0.3070
13	C10   -10.5889    -5.7821   -16.0619	C.2	1	LIG	0.1181
14	C11    -9.2138    -5.6238   -15.9789	C.2	1	LIG	0.0776
15	C12   -11.5593    -5.0178   -15.3915	C.2	1	LIG	0.0483
16	N3   -11.4647    -4.8778   -14.0412	N.2	1	LIG	-0.2060
17	C13   -12.3311    -4.1483   -13.2856	C.2	1	LIG	0.0170
18	C14   -13.3745    -3.4795   -13.9661	C.2	1	LIG	0.0410
19	N4   -13.4955    -3.6345   -15.3089	N.2	1	LIG	-0.2405
20	C15   -12.6392    -4.3853   -16.0477	C.2	1	LIG	0.0772
21	N5   -12.8520    -4.4764   -17.3738	N.3	1	LIG	-0.1041
22	C16   -12.1862    -4.1091   -11.8730	C.2	1	LIG	0.0046
23	C17   -11.9151    -5.2954   -11.1484	C.2	1	LIG	-0.0107
24	C18   -11.8473    -5.2823    -9.7417	C.2	1	LIG	0.0210
25	C19   -12.0339    -4.0785    -9.0313	C.2	1	LIG	0.0208
26	C20   -12.2508    -2.8838    -9.7467	C.2	1	LIG	0.0210
27	C21   -12.3357    -2.9011   -11.1506	C.2	1	LIG	-0.0107
28	S1   -12.0112    -4.0573    -7.2577	S	1	LIG	-0.0291
29	O2   -11.1755    -5.3061    -6.6921	O.2	1	LIG	-0.1953
30	O3   -11.2906    -2.7206    -6.7364	O.2	1	LIG	-0.1953
31	C22   -13.7151    -4.1162    -6.5534	C.3	1	LIG	0.0673
32	C23   -14.5618    -2.8926    -6.9857	C.3	1	LIG	-0.0459
33	C24   -14.4287    -5.4497    -6.8887	C.3	1	LIG	-0.0459
34	H1    -2.1141    -8.6869   -15.6719	H	1	LIG	0.0391
35	H2    -1.1950    -7.3138   -15.0100	H	1	LIG	0.0391
36	H3    -2.9733    -7.3138   -14.9338	H	1	LIG	0.0391
37	H4    -1.6228    -6.1069   -17.0449	H	1	LIG	0.1222
38	H5    -2.8533    -7.0599   -18.7865	H	1	LIG	0.0478
39	H6    -2.9187    -8.6336   -17.7456	H	1	LIG	0.0478
40	H7    -4.2958    -5.1599   -17.4020	H	1	LIG	0.0626
41	H8    -6.6848    -4.7405   -16.9150	H	1	LIG	0.0629
42	H9    -7.5011    -8.9770   -17.2876	H	1	LIG	0.0629
43	H10    -5.0926    -9.4042   -17.6704	H	1	LIG	0.0626
44	H11    -8.6785    -4.8845   -15.3831	H	1	LIG	0.0675
45	H12   -14.0912    -2.8394   -13.4516	H	1	LIG	0.0863
46	H13   -13.7955    -4.5106   -17.7327	H	1	LIG	0.1258
47	H14   -12.0683    -4.5106   -18.0099	H	1	LIG	0.1258
48	H15   -11.7564    -6.2328   -11.6814	H	1	LIG	0.0630
49	H16   -11.6496    -6.2076    -9.2006	H	1	LIG	0.0639
50	H17   -12.3535    -1.9403    -9.2106	H	1	LIG	0.0639
51	H18   -12.5193    -1.9685   -11.6842	H	1	LIG	0.0630
52	H19   -13.8209    -4.0785    -5.4692	H	1	LIG	0.0497
53	H20   -14.9235    -2.3699    -6.1002	H	1	LIG	0.0246
54	H21   -13.9470    -2.2171    -7.5804	H	1	LIG	0.0246
55	H22   -15.4106    -3.2300    -7.5804	H	1	LIG	0.0246
56	H23   -14.7010    -5.9586    -5.9640	H	1	LIG	0.0246
57	H24   -15.3283    -5.2445    -7.4690	H	1	LIG	0.0246
58	H25   -13.7589    -6.0843    -7.4690	H	1	LIG	0.0246
@<TRIPOS>BOND
1	1	2	1
2	2	3	1
3	3	4	1
4	4	5	2
5	5	6	1
6	6	7	2
7	7	8	1
8	8	9	2
9	4	9	1
10	7	10	1
11	10	11	2
12	11	12	1
13	12	13	1
14	13	14	2
15	10	14	1
16	13	15	1
17	15	16	2
18	16	17	1
19	17	18	2
20	18	19	1
21	19	20	2
22	15	20	1
23	20	21	1
24	17	22	1
25	22	23	2
26	23	24	1
27	24	25	2
28	25	26	1
29	26	27	2
30	22	27	1
31	25	28	1
32	28	29	2
33	28	30	2
34	28	31	1
35	31	32	1
36	31	33	1
37	1	34	1
38	1	35	1
39	1	36	1
40	2	37	1
41	3	38	1
42	3	39	1
43	5	40	1
44	6	41	1
45	8	42	1
46	9	43	1
47	14	44	1
48	18	45	1
49	21	46	1
50	21	47	1
51	23	48	1
52	24	49	1
53	26	50	1
54	27	51	1
55	31	52	1
56	32	53	1
57	32	54	1
58	32	55	1
59	33	56	1
60	33	57	1
61	33	58	1
@<TRIPOS>SUBSTRUCTURE
1	LIG	1
