REMARK SMILES Nc1nc(OCc2ccccc2)c2[nH]cnc2n1
REMARK SMILES IDX 5 1 4 2 2 3 18 4 3 5 17 6 13 7 16 8 14 9 15 10 1 12 6 15
REMARK SMILES IDX 7 16 8 17 12 18 9 19 11 20 10 21
REMARK H PARENT 14 11 1 13 1 14
REMARK Flexibility Score: inf
ROOT
ATOM      1  O   UNL     1       0.607  -1.702   0.738  1.00  0.00    -0.471 OA
ENDROOT
BRANCH   1   2
ATOM      2  C   UNL     1       0.205  -2.033   2.006  1.00  0.00     0.245 A 
ATOM      3  C   UNL     1      -0.478  -1.405   4.211  1.00  0.00     0.225 A 
ATOM      4  N   UNL     1      -0.606  -2.709   4.584  1.00  0.00    -0.191 NA
ATOM      5  N   UNL     1      -0.076  -1.084   2.945  1.00  0.00    -0.176 NA
ATOM      6  C   UNL     1      -0.338  -3.686   3.683  1.00  0.00     0.186 A 
ATOM      7  C   UNL     1       0.071  -3.378   2.391  1.00  0.00     0.148 A 
ATOM      8  N   UNL     1      -0.403  -5.020   3.809  1.00  0.00    -0.217 NA
ATOM      9  N   UNL     1       0.252  -4.532   1.745  1.00  0.00    -0.339 N 
ATOM     10  C   UNL     1      -0.039  -5.519   2.610  1.00  0.00     0.199 A 
ATOM     11  H   UNL     1       0.551  -4.638   0.786  1.00  0.00     0.168 HD
BRANCH   3  12
ATOM     12  N   UNL     1      -0.755  -0.433   5.093  1.00  0.00    -0.368 N 
ATOM     13  H   UNL     1      -0.018   0.172   5.426  1.00  0.00     0.159 HD
ATOM     14  H   UNL     1      -1.700  -0.307   5.426  1.00  0.00     0.159 HD
ENDBRANCH   3  12
ENDBRANCH   1   2
BRANCH   1  15
ATOM     15  C   UNL     1      -0.473  -1.326  -0.145  1.00  0.00     0.267 C 
BRANCH  15  16
ATOM     16  C   UNL     1      -1.408  -2.452  -0.421  1.00  0.00    -0.011 A 
ATOM     17  C   UNL     1      -0.981  -3.552  -1.201  1.00  0.00     0.007 A 
ATOM     18  C   UNL     1      -2.712  -2.472   0.129  1.00  0.00     0.007 A 
ATOM     19  C   UNL     1      -1.835  -4.649  -1.420  1.00  0.00     0.000 A 
ATOM     20  C   UNL     1      -3.566  -3.569  -0.094  1.00  0.00     0.000 A 
ATOM     21  C   UNL     1      -3.127  -4.659  -0.866  1.00  0.00     0.000 A 
ENDBRANCH  15  16
ENDBRANCH   1  15
TORSDOF 4
