@<TRIPOS>MOLECULE

29 31 1
SMALL
USER_CHARGES
@<TRIPOS>ATOM
1	N1    -0.7549    -0.4330     5.0934	N.3	1	LIG	-0.0829
2	C1    -0.4782    -1.4046     4.2112	C.2	1	LIG	0.0683
3	N2    -0.6062    -2.7094     4.5836	N.2	1	LIG	-0.2140
4	C2    -0.3382    -3.6859     3.6827	C.2	1	LIG	0.1002
5	C3     0.0712    -3.3785     2.3913	C.2	1	LIG	0.0205
6	N3     0.2519    -4.5324     1.7451	N.3	1	LIG	-0.0093
7	C4    -0.0393    -5.5194     2.6101	C.2	1	LIG	-0.0220
8	N4    -0.4032    -5.0198     3.8087	N.2	1	LIG	-0.1889
9	C5     0.2055    -2.0334     2.0065	C.2	1	LIG	0.0694
10	O1     0.6065    -1.7021     0.7376	O.3	1	LIG	-0.2308
11	C6    -0.4730    -1.3261    -0.1450	C.3	1	LIG	0.0802
12	C7    -1.4077    -2.4521    -0.4207	C.2	1	LIG	-0.0434
13	C8    -0.9808    -3.5521    -1.2014	C.2	1	LIG	-0.0497
14	C9    -1.8350    -4.6491    -1.4202	C.2	1	LIG	-0.0585
15	C10    -3.1268    -4.6586    -0.8663	C.2	1	LIG	-0.0611
16	C11    -3.5660    -3.5687    -0.0941	C.2	1	LIG	-0.0585
17	C12    -2.7115    -2.4724     0.1293	C.2	1	LIG	-0.0497
18	N5    -0.0756    -1.0838     2.9454	N.2	1	LIG	-0.2162
19	H1    -0.0178     0.1724     5.4255	H	1	LIG	0.1273
20	H2    -1.7003    -0.3067     5.4255	H	1	LIG	0.1273
21	H3     0.5512    -4.6384     0.7863	H	1	LIG	0.1539
22	H4     0.0126    -6.5818     2.3717	H	1	LIG	0.1014
23	H5    -1.0436    -0.5720     0.3970	H	1	LIG	0.0624
24	H6     0.0006    -1.0737    -1.0938	H	1	LIG	0.0624
25	H7     0.0174    -3.5544    -1.6391	H	1	LIG	0.0626
26	H8    -1.4951    -5.4934    -2.0202	H	1	LIG	0.0622
27	H9    -3.7868    -5.5095    -1.0352	H	1	LIG	0.0622
28	H10    -4.5694    -3.5737     0.3316	H	1	LIG	0.0622
29	H11    -3.0616    -1.6342     0.7318	H	1	LIG	0.0626
@<TRIPOS>BOND
1	1	2	1
2	2	3	2
3	3	4	1
4	4	5	2
5	5	6	1
6	6	7	1
7	7	8	2
8	4	8	1
9	5	9	1
10	9	10	1
11	10	11	1
12	11	12	1
13	12	13	2
14	13	14	1
15	14	15	2
16	15	16	1
17	16	17	2
18	12	17	1
19	9	18	2
20	2	18	1
21	1	19	1
22	1	20	1
23	6	21	1
24	7	22	1
25	11	23	1
26	11	24	1
27	13	25	1
28	14	26	1
29	15	27	1
30	16	28	1
31	17	29	1
@<TRIPOS>SUBSTRUCTURE
1	LIG	1
