REMARK SMILES COc1ccc(C(=O)/C=C/c2cccc(Nc3nc(-c4ccc(OC)c(OC)c4)nc4ccccc34)c2)cc1OC
REMARK SMILES IDX 15 1 37 2 11 3 12 4 13 5 14 6 16 7 17 9 19 10 30 11 18 12
REMARK SMILES IDX 31 13 36 14 32 15 35 16 33 17 34 18 20 19 23 20 22 21 26 22
REMARK SMILES IDX 21 23 29 24 24 25 25 26 27 27 28 28 10 29 9 30 7 31 8 32
REMARK SMILES IDX 6 33 38 34 5 35 39 36 4 37 3 38 40 39 41 40 2 41 1 42
REMARK H PARENT 16 8
REMARK Flexibility Score: inf
ROOT
ATOM      1  C   UNL     1      -5.597   2.292   4.278  1.00  0.00     0.040 A 
ATOM      2  C   UNL     1      -5.240   1.655   3.056  1.00  0.00     0.034 A 
ATOM      3  C   UNL     1      -6.133   0.774   2.380  1.00  0.00    -0.023 A 
ATOM      4  C   UNL     1      -7.417   0.578   2.957  1.00  0.00     0.008 A 
ATOM      5  C   UNL     1      -7.779   1.187   4.167  1.00  0.00     0.003 A 
ATOM      6  C   UNL     1      -6.870   2.024   4.826  1.00  0.00     0.026 A 
ENDROOT
BRANCH   1   7
ATOM      7  N   UNL     1      -4.864   3.191   5.012  1.00  0.00    -0.340 N 
ATOM      8  H   UNL     1      -5.345   3.540   5.829  1.00  0.00     0.168 HD
BRANCH   7   9
ATOM      9  C   UNL     1      -3.611   3.713   4.865  1.00  0.00     0.142 A 
ATOM     10  C   UNL     1      -1.492   3.725   3.753  1.00  0.00     0.162 A 
ATOM     11  N   UNL     1      -1.085   4.761   4.525  1.00  0.00    -0.228 NA
ATOM     12  N   UNL     1      -2.740   3.226   3.944  1.00  0.00    -0.210 NA
ATOM     13  C   UNL     1      -1.870   5.293   5.490  1.00  0.00     0.076 A 
ATOM     14  C   UNL     1      -3.183   4.786   5.699  1.00  0.00     0.043 A 
ATOM     15  C   UNL     1      -1.360   6.342   6.279  1.00  0.00     0.029 A 
ATOM     16  C   UNL     1      -3.970   5.380   6.718  1.00  0.00     0.014 A 
ATOM     17  C   UNL     1      -2.157   6.908   7.287  1.00  0.00     0.002 A 
ATOM     18  C   UNL     1      -3.458   6.427   7.508  1.00  0.00     0.001 A 
BRANCH  10  19
ATOM     19  C   UNL     1      -0.611   3.160   2.808  1.00  0.00     0.023 A 
ATOM     20  C   UNL     1       1.234   1.992   0.990  1.00  0.00     0.160 A 
ATOM     21  C   UNL     1       1.238   3.383   1.214  1.00  0.00     0.051 A 
ATOM     22  C   UNL     1       0.337   1.155   1.691  1.00  0.00     0.161 A 
ATOM     23  C   UNL     1       0.334   3.957   2.124  1.00  0.00     0.016 A 
ATOM     24  C   UNL     1      -0.619   1.771   2.564  1.00  0.00     0.062 A 
BRANCH  20  25
ATOM     25  O   UNL     1       2.133   1.453   0.107  1.00  0.00    -0.493 OA
ATOM     26  C   UNL     1       1.653   1.467  -1.250  1.00  0.00     0.278 C 
ENDBRANCH  20  25
BRANCH  22  27
ATOM     27  O   UNL     1       0.498  -0.222   1.484  1.00  0.00    -0.493 OA
ATOM     28  C   UNL     1       0.958  -0.876   2.774  1.00  0.00     0.278 C 
ENDBRANCH  22  27
ENDBRANCH  10  19
ENDBRANCH   7   9
ENDBRANCH   1   7
BRANCH   3  29
ATOM     29  C   UNL     1      -5.848   0.109   1.169  1.00  0.00     0.012 C 
ATOM     30  C   UNL     1      -4.655  -0.054   0.556  1.00  0.00     0.053 C 
BRANCH  30  31
ATOM     31  C   UNL     1      -4.493  -0.694  -0.687  1.00  0.00     0.185 C 
ATOM     32  O   UNL     1      -5.518  -0.983  -1.353  1.00  0.00    -0.289 OA
BRANCH  31  33
ATOM     33  C   UNL     1      -3.237  -1.035  -1.284  1.00  0.00     0.026 A 
ATOM     34  C   UNL     1      -2.114  -1.431  -0.517  1.00  0.00     0.062 A 
ATOM     35  C   UNL     1      -3.090  -1.034  -2.696  1.00  0.00     0.016 A 
ATOM     36  C   UNL     1      -0.913  -1.857  -1.129  1.00  0.00     0.161 A 
ATOM     37  C   UNL     1      -1.889  -1.429  -3.313  1.00  0.00     0.051 A 
ATOM     38  C   UNL     1      -0.792  -1.853  -2.535  1.00  0.00     0.160 A 
BRANCH  36  39
ATOM     39  O   UNL     1       0.154  -2.250  -0.363  1.00  0.00    -0.493 OA
ATOM     40  C   UNL     1       0.040  -3.601   0.114  1.00  0.00     0.278 C 
ENDBRANCH  36  39
BRANCH  38  41
ATOM     41  O   UNL     1       0.410  -2.201  -3.106  1.00  0.00    -0.493 OA
ATOM     42  C   UNL     1       0.391  -3.387  -3.926  1.00  0.00     0.278 C 
ENDBRANCH  38  41
ENDBRANCH  31  33
ENDBRANCH  30  31
ENDBRANCH   3  29
TORSDOF 10
