@<TRIPOS>MOLECULE

70 74 1
SMALL
USER_CHARGES
@<TRIPOS>ATOM
1	C1     1.6535     1.4667    -1.2499	C.3	1	LIG	0.0424
2	O1     2.1331     1.4528     0.1074	O.3	1	LIG	-0.2654
3	C2     1.2339     1.9918     0.9895	C.2	1	LIG	0.0412
4	C3     1.2384     3.3827     1.2144	C.2	1	LIG	-0.0098
5	C4     0.3335     3.9568     2.1236	C.2	1	LIG	-0.0223
6	C5    -0.6109     3.1601     2.8078	C.2	1	LIG	-0.0221
7	C6    -0.6194     1.7708     2.5639	C.2	1	LIG	0.0173
8	C7     0.3372     1.1550     1.6910	C.2	1	LIG	0.0376
9	O2     0.4982    -0.2220     1.4842	O.3	1	LIG	-0.2662
10	C8     0.9575    -0.8765     2.7742	C.3	1	LIG	0.0424
11	C9    -1.4923     3.7246     3.7527	C.2	1	LIG	0.0663
12	N1    -1.0853     4.7606     4.5254	N.2	1	LIG	-0.2460
13	C10    -1.8699     5.2933     5.4897	C.2	1	LIG	0.0513
14	C11    -3.1826     4.7856     5.6988	C.2	1	LIG	-0.0236
15	C12    -3.9696     5.3798     6.7180	C.2	1	LIG	-0.0226
16	C13    -3.4581     6.4267     7.5081	C.2	1	LIG	-0.0518
17	C14    -2.1572     6.9082     7.2871	C.2	1	LIG	-0.0354
18	C15    -1.3604     6.3417     6.2790	C.2	1	LIG	-0.0078
19	C16    -3.6107     3.7135     4.8647	C.2	1	LIG	0.0447
20	N2    -4.8637     3.1910     5.0124	N.3	1	LIG	0.0057
21	C17    -5.5968     2.2917     4.2777	C.2	1	LIG	-0.0283
22	C18    -5.2404     1.6554     3.0556	C.2	1	LIG	-0.0467
23	C19    -6.1330     0.7744     2.3799	C.2	1	LIG	-0.0457
24	C20    -5.8480     0.1093     1.1695	C.2	1	LIG	-0.0219
25	C21    -4.6548    -0.0543     0.5558	C.2	1	LIG	0.0273
26	C22    -4.4930    -0.6936    -0.6866	C.2	1	LIG	0.0629
27	O3    -5.5184    -0.9833    -1.3534	O.2	1	LIG	-0.3002
28	C23    -3.2367    -1.0354    -1.2844	C.2	1	LIG	-0.0205
29	C24    -2.1143    -1.4312    -0.5169	C.2	1	LIG	0.0184
30	C25    -0.9126    -1.8567    -1.1288	C.2	1	LIG	0.0383
31	O4     0.1542    -2.2497    -0.3631	O.3	1	LIG	-0.2662
32	C26     0.0404    -3.6013     0.1140	C.3	1	LIG	0.0424
33	C27    -0.7923    -1.8534    -2.5353	C.2	1	LIG	0.0415
34	O5     0.4100    -2.2014    -3.1063	O.3	1	LIG	-0.2653
35	C28     0.3910    -3.3868    -3.9257	C.3	1	LIG	0.0424
36	C29    -1.8889    -1.4294    -3.3126	C.2	1	LIG	-0.0091
37	C30    -3.0899    -1.0344    -2.6963	C.2	1	LIG	-0.0212
38	C31    -7.4167     0.5782     2.9565	C.2	1	LIG	-0.0715
39	C32    -7.7787     1.1865     4.1668	C.2	1	LIG	-0.0597
40	C33    -6.8702     2.0242     4.8256	C.2	1	LIG	-0.0574
41	N3    -2.7401     3.2260     3.9441	N.2	1	LIG	-0.2355
42	H1     1.5291     0.4426    -1.6018	H	1	LIG	0.0535
43	H2     0.6949     1.9841    -1.2912	H	1	LIG	0.0535
44	H3     2.3732     1.9841    -1.8843	H	1	LIG	0.0535
45	H4     1.9460     4.0182     0.6820	H	1	LIG	0.0651
46	H5     0.3644     5.0319     2.3000	H	1	LIG	0.0631
47	H6    -1.3775     1.1631     3.0580	H	1	LIG	0.0658
48	H7     0.9188    -1.9603     2.6655	H	1	LIG	0.0535
49	H8     1.9801    -0.5695     2.9933	H	1	LIG	0.0535
50	H9     0.3033    -0.5695     3.5902	H	1	LIG	0.0535
51	H10    -4.9849     5.0258     6.8972	H	1	LIG	0.0630
52	H11    -4.0718     6.8665     8.2942	H	1	LIG	0.0622
53	H12    -1.7660     7.7216     7.8982	H	1	LIG	0.0623
54	H13    -0.3502     6.7144     6.1098	H	1	LIG	0.0645
55	H14    -5.3449     3.5397     5.8292	H	1	LIG	0.1357
56	H15    -4.2575     1.8481     2.6257	H	1	LIG	0.0645
57	H16    -6.6750    -0.3476     0.6260	H	1	LIG	0.0630
58	H17    -3.7889     0.3452     1.0837	H	1	LIG	0.0663
59	H18    -2.1768    -1.4078     0.5711	H	1	LIG	0.0658
60	H19     0.0403    -3.6030     1.2040	H	1	LIG	0.0535
61	H20    -0.8895    -4.0380    -0.2502	H	1	LIG	0.0535
62	H21     0.8842    -4.1874    -0.2502	H	1	LIG	0.0535
63	H22     0.3768    -4.2699    -3.2869	H	1	LIG	0.0535
64	H23    -0.4990    -3.3793    -4.5550	H	1	LIG	0.0535
65	H24     1.2807    -3.4079    -4.5550	H	1	LIG	0.0535
66	H25    -1.8074    -1.4068    -4.3994	H	1	LIG	0.0651
67	H26    -3.9234    -0.7214    -3.3251	H	1	LIG	0.0631
68	H27    -8.1458    -0.0584     2.4552	H	1	LIG	0.0628
69	H28    -8.7651     1.0085     4.5950	H	1	LIG	0.0623
70	H29    -7.1576     2.4733     5.7762	H	1	LIG	0.0639
@<TRIPOS>BOND
1	1	2	1
2	2	3	1
3	3	4	2
4	4	5	1
5	5	6	2
6	6	7	1
7	7	8	2
8	3	8	1
9	8	9	1
10	9	10	1
11	6	11	1
12	11	12	2
13	12	13	1
14	13	14	2
15	14	15	1
16	15	16	2
17	16	17	1
18	17	18	2
19	13	18	1
20	14	19	1
21	19	20	1
22	20	21	1
23	21	22	2
24	22	23	1
25	23	24	1
26	24	25	2
27	25	26	1
28	26	27	2
29	26	28	1
30	28	29	2
31	29	30	1
32	30	31	1
33	31	32	1
34	30	33	2
35	33	34	1
36	34	35	1
37	33	36	1
38	36	37	2
39	28	37	1
40	23	38	2
41	38	39	1
42	39	40	2
43	21	40	1
44	19	41	2
45	11	41	1
46	1	42	1
47	1	43	1
48	1	44	1
49	4	45	1
50	5	46	1
51	7	47	1
52	10	48	1
53	10	49	1
54	10	50	1
55	15	51	1
56	16	52	1
57	17	53	1
58	18	54	1
59	20	55	1
60	22	56	1
61	24	57	1
62	25	58	1
63	29	59	1
64	32	60	1
65	32	61	1
66	32	62	1
67	35	63	1
68	35	64	1
69	35	65	1
70	36	66	1
71	37	67	1
72	38	68	1
73	39	69	1
74	40	70	1
@<TRIPOS>SUBSTRUCTURE
1	LIG	1
