MODEL 1
REMARK VINA RESULT:    -8.247      0.000      0.000
REMARK INTER + INTRA:         -14.422
REMARK INTER:                 -13.068
REMARK INTRA:                  -1.354
REMARK UNBOUND:                -1.354
REMARK SMILES COc1ccc(C(=O)/C=C/c2cccc(Nc3nc(-c4ccc(OC)c(OC)c4)nc4ccccc34)c2)cc1OC
REMARK SMILES IDX 15 1 37 2 11 3 12 4 13 5 14 6 16 7 17 9 19 10 30 11 18 12
REMARK SMILES IDX 31 13 36 14 32 15 35 16 33 17 34 18 20 19 23 20 22 21 26 22
REMARK SMILES IDX 21 23 29 24 24 25 25 26 27 27 28 28 10 29 9 30 7 31 8 32
REMARK SMILES IDX 6 33 38 34 5 35 39 36 4 37 3 38 40 39 41 40 2 41 1 42
REMARK H PARENT 16 8
REMARK Flexibility Score: inf
ROOT
ATOM      1  C   UNL     1     170.951 113.267 222.858  1.00  0.00     0.040 A 
ATOM      2  C   UNL     1     170.138 113.892 223.846  1.00  0.00     0.034 A 
ATOM      3  C   UNL     1     170.573 114.035 225.195  1.00  0.00    -0.023 A 
ATOM      4  C   UNL     1     171.873 113.558 225.515  1.00  0.00     0.008 A 
ATOM      5  C   UNL     1     172.681 112.929 224.558  1.00  0.00     0.003 A 
ATOM      6  C   UNL     1     172.215 112.773 223.246  1.00  0.00     0.026 A 
ENDROOT
BRANCH   1   7
ATOM      7  N   UNL     1     170.685 113.099 221.522  1.00  0.00    -0.340 N 
ATOM      8  H   UNL     1     171.030 113.849 220.939  1.00  0.00     0.168 HD
BRANCH   7   9
ATOM      9  C   UNL     1     170.047 112.122 220.814  1.00  0.00     0.142 A 
ATOM     10  C   UNL     1     170.131 110.294 219.272  1.00  0.00     0.162 A 
ATOM     11  N   UNL     1     168.793 110.122 219.392  1.00  0.00    -0.228 NA
ATOM     12  N   UNL     1     170.722 111.289 219.981  1.00  0.00    -0.210 NA
ATOM     13  C   UNL     1     168.030 110.922 220.172  1.00  0.00     0.076 A 
ATOM     14  C   UNL     1     168.635 111.965 220.928  1.00  0.00     0.043 A 
ATOM     15  C   UNL     1     166.639 110.705 220.213  1.00  0.00     0.029 A 
ATOM     16  C   UNL     1     167.795 112.773 221.736  1.00  0.00     0.014 A 
ATOM     17  C   UNL     1     165.829 111.524 221.015  1.00  0.00     0.002 A 
ATOM     18  C   UNL     1     166.404 112.557 221.773  1.00  0.00     0.001 A 
BRANCH  10  19
ATOM     19  C   UNL     1     170.871 109.478 218.391  1.00  0.00     0.023 A 
ATOM     20  C   UNL     1     172.440 107.920 216.607  1.00  0.00     0.160 A 
ATOM     21  C   UNL     1     171.315 108.626 216.136  1.00  0.00     0.051 A 
ATOM     22  C   UNL     1     172.824 108.005 217.964  1.00  0.00     0.161 A 
ATOM     23  C   UNL     1     170.548 109.407 217.018  1.00  0.00     0.016 A 
ATOM     24  C   UNL     1     171.989 108.755 218.856  1.00  0.00     0.062 A 
BRANCH  20  25
ATOM     25  O   UNL     1     173.179 107.174 215.726  1.00  0.00    -0.493 OA
ATOM     26  C   UNL     1     173.384 107.844 214.468  1.00  0.00     0.278 C 
ENDBRANCH  20  25
BRANCH  22  27
ATOM     27  O   UNL     1     174.024 107.363 218.300  1.00  0.00    -0.493 OA
ATOM     28  C   UNL     1     174.277 107.514 219.789  1.00  0.00     0.278 C 
ENDBRANCH  22  27
ENDBRANCH  10  19
ENDBRANCH   7   9
ENDBRANCH   1   7
BRANCH   3  29
ATOM     29  C   UNL     1     169.823 114.641 226.225  1.00  0.00     0.012 C 
ATOM     30  C   UNL     1     168.551 115.096 226.187  1.00  0.00     0.053 C 
BRANCH  30  31
ATOM     31  C   UNL     1     167.915 115.737 227.267  1.00  0.00     0.185 C 
ATOM     32  O   UNL     1     167.305 115.034 228.109  1.00  0.00    -0.289 OA
BRANCH  31  33
ATOM     33  C   UNL     1     167.918 117.149 227.508  1.00  0.00     0.026 A 
ATOM     34  C   UNL     1     167.259 117.730 228.619  1.00  0.00     0.062 A 
ATOM     35  C   UNL     1     168.638 118.022 226.651  1.00  0.00     0.016 A 
ATOM     36  C   UNL     1     167.354 119.114 228.894  1.00  0.00     0.161 A 
ATOM     37  C   UNL     1     168.714 119.404 226.901  1.00  0.00     0.051 A 
ATOM     38  C   UNL     1     168.080 119.962 228.031  1.00  0.00     0.160 A 
BRANCH  36  39
ATOM     39  O   UNL     1     166.719 119.649 229.985  1.00  0.00    -0.493 OA
ATOM     40  C   UNL     1     165.337 119.264 230.079  1.00  0.00     0.278 C 
ENDBRANCH  36  39
BRANCH  38  41
ATOM     41  O   UNL     1     168.097 121.315 228.277  1.00  0.00    -0.493 OA
ATOM     42  C   UNL     1     169.334 121.837 228.804  1.00  0.00     0.278 C 
ENDBRANCH  38  41
ENDBRANCH  31  33
ENDBRANCH  30  31
ENDBRANCH   3  29
TORSDOF 10
ENDMDL
MODEL 2
REMARK VINA RESULT:    -8.001      3.156      5.708
REMARK INTER + INTRA:         -14.032
REMARK INTER:                 -12.586
REMARK INTRA:                  -1.447
REMARK UNBOUND:                -1.354
REMARK SMILES COc1ccc(C(=O)/C=C/c2cccc(Nc3nc(-c4ccc(OC)c(OC)c4)nc4ccccc34)c2)cc1OC
REMARK SMILES IDX 15 1 37 2 11 3 12 4 13 5 14 6 16 7 17 9 19 10 30 11 18 12
REMARK SMILES IDX 31 13 36 14 32 15 35 16 33 17 34 18 20 19 23 20 22 21 26 22
REMARK SMILES IDX 21 23 29 24 24 25 25 26 27 27 28 28 10 29 9 30 7 31 8 32
REMARK SMILES IDX 6 33 38 34 5 35 39 36 4 37 3 38 40 39 41 40 2 41 1 42
REMARK H PARENT 16 8
REMARK Flexibility Score: inf
ROOT
ATOM      1  C   UNL     1     170.162 115.096 226.235  1.00  0.00     0.040 A 
ATOM      2  C   UNL     1     170.438 116.466 226.510  1.00  0.00     0.034 A 
ATOM      3  C   UNL     1     169.433 117.352 226.994  1.00  0.00    -0.023 A 
ATOM      4  C   UNL     1     168.141 116.807 227.226  1.00  0.00     0.008 A 
ATOM      5  C   UNL     1     167.848 115.465 226.947  1.00  0.00     0.003 A 
ATOM      6  C   UNL     1     168.848 114.624 226.443  1.00  0.00     0.026 A 
ENDROOT
BRANCH   1   7
ATOM      7  N   UNL     1     171.032 114.124 225.811  1.00  0.00    -0.340 N 
ATOM      8  H   UNL     1     171.482 113.622 226.563  1.00  0.00     0.168 HD
BRANCH   7   9
ATOM      9  C   UNL     1     171.417 113.691 224.574  1.00  0.00     0.142 A 
ATOM     10  C   UNL     1     170.864 112.725 222.455  1.00  0.00     0.162 A 
ATOM     11  N   UNL     1     172.155 112.834 222.061  1.00  0.00    -0.228 NA
ATOM     12  N   UNL     1     170.528 113.152 223.700  1.00  0.00    -0.210 NA
ATOM     13  C   UNL     1     173.118 113.328 222.873  1.00  0.00     0.076 A 
ATOM     14  C   UNL     1     172.782 113.786 224.178  1.00  0.00     0.043 A 
ATOM     15  C   UNL     1     174.445 113.371 222.405  1.00  0.00     0.029 A 
ATOM     16  C   UNL     1     173.824 114.302 224.989  1.00  0.00     0.014 A 
ATOM     17  C   UNL     1     175.460 113.879 223.232  1.00  0.00     0.002 A 
ATOM     18  C   UNL     1     175.152 114.341 224.522  1.00  0.00     0.001 A 
BRANCH  10  19
ATOM     19  C   UNL     1     169.911 112.138 221.598  1.00  0.00     0.023 A 
ATOM     20  C   UNL     1     167.934 111.056 219.868  1.00  0.00     0.160 A 
ATOM     21  C   UNL     1     167.865 110.831 221.257  1.00  0.00     0.051 A 
ATOM     22  C   UNL     1     168.966 111.850 219.319  1.00  0.00     0.161 A 
ATOM     23  C   UNL     1     168.836 111.379 222.112  1.00  0.00     0.016 A 
ATOM     24  C   UNL     1     169.981 112.343 220.204  1.00  0.00     0.062 A 
BRANCH  20  25
ATOM     25  O   UNL     1     166.969 110.521 219.054  1.00  0.00    -0.493 OA
ATOM     26  C   UNL     1     167.171 109.118 218.803  1.00  0.00     0.278 C 
ENDBRANCH  20  25
BRANCH  22  27
ATOM     27  O   UNL     1     168.873 112.109 217.945  1.00  0.00    -0.493 OA
ATOM     28  C   UNL     1     170.259 112.068 217.328  1.00  0.00     0.278 C 
ENDBRANCH  22  27
ENDBRANCH  10  19
ENDBRANCH   7   9
ENDBRANCH   1   7
BRANCH   3  29
ATOM     29  C   UNL     1     169.633 118.717 227.287  1.00  0.00     0.012 C 
ATOM     30  C   UNL     1     169.046 119.470 228.243  1.00  0.00     0.053 C 
BRANCH  30  31
ATOM     31  C   UNL     1     169.284 120.847 228.413  1.00  0.00     0.185 C 
ATOM     32  O   UNL     1     170.220 121.380 227.767  1.00  0.00    -0.289 OA
BRANCH  31  33
ATOM     33  C   UNL     1     168.527 121.719 229.259  1.00  0.00     0.026 A 
ATOM     34  C   UNL     1     167.282 121.340 229.820  1.00  0.00     0.062 A 
ATOM     35  C   UNL     1     169.033 122.998 229.608  1.00  0.00     0.016 A 
ATOM     36  C   UNL     1     166.596 122.177 230.730  1.00  0.00     0.161 A 
ATOM     37  C   UNL     1     168.343 123.849 230.491  1.00  0.00     0.051 A 
ATOM     38  C   UNL     1     167.122 123.442 231.067  1.00  0.00     0.160 A 
BRANCH  36  39
ATOM     39  O   UNL     1     165.400 121.779 231.270  1.00  0.00    -0.493 OA
ATOM     40  C   UNL     1     164.860 120.604 230.644  1.00  0.00     0.278 C 
ENDBRANCH  36  39
BRANCH  38  41
ATOM     41  O   UNL     1     166.401 124.269 231.896  1.00  0.00    -0.493 OA
ATOM     42  C   UNL     1     167.081 125.465 232.330  1.00  0.00     0.278 C 
ENDBRANCH  38  41
ENDBRANCH  31  33
ENDBRANCH  30  31
ENDBRANCH   3  29
TORSDOF 10
ENDMDL
MODEL 3
REMARK VINA RESULT:    -7.953      2.002     12.703
REMARK INTER + INTRA:         -13.956
REMARK INTER:                 -12.435
REMARK INTRA:                  -1.521
REMARK UNBOUND:                -1.354
REMARK SMILES COc1ccc(C(=O)/C=C/c2cccc(Nc3nc(-c4ccc(OC)c(OC)c4)nc4ccccc34)c2)cc1OC
REMARK SMILES IDX 15 1 37 2 11 3 12 4 13 5 14 6 16 7 17 9 19 10 30 11 18 12
REMARK SMILES IDX 31 13 36 14 32 15 35 16 33 17 34 18 20 19 23 20 22 21 26 22
REMARK SMILES IDX 21 23 29 24 24 25 25 26 27 27 28 28 10 29 9 30 7 31 8 32
REMARK SMILES IDX 6 33 38 34 5 35 39 36 4 37 3 38 40 39 41 40 2 41 1 42
REMARK H PARENT 16 8
REMARK Flexibility Score: inf
ROOT
ATOM      1  C   UNL     1     169.042 112.257 222.938  1.00  0.00     0.040 A 
ATOM      2  C   UNL     1     169.418 111.497 221.794  1.00  0.00     0.034 A 
ATOM      3  C   UNL     1     168.648 111.516 220.595  1.00  0.00    -0.023 A 
ATOM      4  C   UNL     1     167.500 112.353 220.570  1.00  0.00     0.008 A 
ATOM      5  C   UNL     1     167.109 113.097 221.693  1.00  0.00     0.003 A 
ATOM      6  C   UNL     1     167.867 113.036 222.868  1.00  0.00     0.026 A 
ENDROOT
BRANCH   1   7
ATOM      7  N   UNL     1     169.704 112.370 224.135  1.00  0.00    -0.340 N 
ATOM      8  H   UNL     1     169.718 111.517 224.677  1.00  0.00     0.168 HD
BRANCH   7   9
ATOM      9  C   UNL     1     170.351 113.404 224.748  1.00  0.00     0.142 A 
ATOM     10  C   UNL     1     170.273 115.459 225.973  1.00  0.00     0.162 A 
ATOM     11  N   UNL     1     171.626 115.492 226.017  1.00  0.00    -0.228 NA
ATOM     12  N   UNL     1     169.671 114.421 225.338  1.00  0.00    -0.210 NA
ATOM     13  C   UNL     1     172.390 114.541 225.431  1.00  0.00     0.076 A 
ATOM     14  C   UNL     1     171.775 113.443 224.768  1.00  0.00     0.043 A 
ATOM     15  C   UNL     1     173.792 114.668 225.485  1.00  0.00     0.029 A 
ATOM     16  C   UNL     1     172.618 112.469 224.174  1.00  0.00     0.014 A 
ATOM     17  C   UNL     1     174.604 113.693 224.883  1.00  0.00     0.002 A 
ATOM     18  C   UNL     1     174.019 112.598 224.227  1.00  0.00     0.001 A 
BRANCH  10  19
ATOM     19  C   UNL     1     169.522 116.510 226.538  1.00  0.00     0.023 A 
ATOM     20  C   UNL     1     168.077 118.623 227.771  1.00  0.00     0.160 A 
ATOM     21  C   UNL     1     167.589 117.303 227.820  1.00  0.00     0.051 A 
ATOM     22  C   UNL     1     169.307 118.910 227.139  1.00  0.00     0.161 A 
ATOM     23  C   UNL     1     168.312 116.257 227.222  1.00  0.00     0.016 A 
ATOM     24  C   UNL     1     169.994 117.838 226.479  1.00  0.00     0.062 A 
BRANCH  20  25
ATOM     25  O   UNL     1     167.360 119.625 228.372  1.00  0.00    -0.493 OA
ATOM     26  C   UNL     1     167.244 119.446 229.795  1.00  0.00     0.278 C 
ENDBRANCH  20  25
BRANCH  22  27
ATOM     27  O   UNL     1     169.758 120.233 227.251  1.00  0.00    -0.493 OA
ATOM     28  C   UNL     1     170.965 120.278 228.171  1.00  0.00     0.278 C 
ENDBRANCH  22  27
ENDBRANCH  10  19
ENDBRANCH   7   9
ENDBRANCH   1   7
BRANCH   3  29
ATOM     29  C   UNL     1     168.958 110.790 219.426  1.00  0.00     0.012 C 
ATOM     30  C   UNL     1     169.259 111.261 218.195  1.00  0.00     0.053 C 
BRANCH  30  31
ATOM     31  C   UNL     1     169.501 110.438 217.079  1.00  0.00     0.185 C 
ATOM     32  O   UNL     1     168.550 110.192 216.296  1.00  0.00    -0.289 OA
BRANCH  31  33
ATOM     33  C   UNL     1     170.765 109.861 216.736  1.00  0.00     0.026 A 
ATOM     34  C   UNL     1     170.875 108.643 216.021  1.00  0.00     0.062 A 
ATOM     35  C   UNL     1     171.973 110.530 217.066  1.00  0.00     0.016 A 
ATOM     36  C   UNL     1     172.129 108.139 215.607  1.00  0.00     0.161 A 
ATOM     37  C   UNL     1     173.227 110.021 216.683  1.00  0.00     0.051 A 
ATOM     38  C   UNL     1     173.316 108.825 215.942  1.00  0.00     0.160 A 
BRANCH  36  39
ATOM     39  O   UNL     1     172.206 106.965 214.903  1.00  0.00    -0.493 OA
ATOM     40  C   UNL     1     172.019 107.141 213.489  1.00  0.00     0.278 C 
ENDBRANCH  36  39
BRANCH  38  41
ATOM     41  O   UNL     1     174.529 108.277 215.593  1.00  0.00    -0.493 OA
ATOM     42  C   UNL     1     175.386 107.906 216.692  1.00  0.00     0.278 C 
ENDBRANCH  38  41
ENDBRANCH  31  33
ENDBRANCH  30  31
ENDBRANCH   3  29
TORSDOF 10
ENDMDL
MODEL 4
REMARK VINA RESULT:    -7.944      3.404     12.547
REMARK INTER + INTRA:         -13.942
REMARK INTER:                 -12.319
REMARK INTRA:                  -1.623
REMARK UNBOUND:                -1.354
REMARK SMILES COc1ccc(C(=O)/C=C/c2cccc(Nc3nc(-c4ccc(OC)c(OC)c4)nc4ccccc34)c2)cc1OC
REMARK SMILES IDX 15 1 37 2 11 3 12 4 13 5 14 6 16 7 17 9 19 10 30 11 18 12
REMARK SMILES IDX 31 13 36 14 32 15 35 16 33 17 34 18 20 19 23 20 22 21 26 22
REMARK SMILES IDX 21 23 29 24 24 25 25 26 27 27 28 28 10 29 9 30 7 31 8 32
REMARK SMILES IDX 6 33 38 34 5 35 39 36 4 37 3 38 40 39 41 40 2 41 1 42
REMARK H PARENT 16 8
REMARK Flexibility Score: inf
ROOT
ATOM      1  C   UNL     1     170.612 114.408 226.264  1.00  0.00     0.040 A 
ATOM      2  C   UNL     1     169.685 113.692 225.455  1.00  0.00     0.034 A 
ATOM      3  C   UNL     1     169.979 113.343 224.105  1.00  0.00    -0.023 A 
ATOM      4  C   UNL     1     171.256 113.710 223.601  1.00  0.00     0.008 A 
ATOM      5  C   UNL     1     172.175 114.427 224.380  1.00  0.00     0.003 A 
ATOM      6  C   UNL     1     171.847 114.784 225.694  1.00  0.00     0.026 A 
ENDROOT
BRANCH   1   7
ATOM      7  N   UNL     1     170.485 114.771 227.582  1.00  0.00    -0.340 N 
ATOM      8  H   UNL     1     171.299 114.565 228.143  1.00  0.00     0.168 HD
BRANCH   7   9
ATOM      9  C   UNL     1     169.479 115.357 228.295  1.00  0.00     0.142 A 
ATOM     10  C   UNL     1     168.289 117.323 228.961  1.00  0.00     0.162 A 
ATOM     11  N   UNL     1     167.442 116.568 229.701  1.00  0.00    -0.228 NA
ATOM     12  N   UNL     1     169.285 116.701 228.281  1.00  0.00    -0.210 NA
ATOM     13  C   UNL     1     167.573 115.226 229.801  1.00  0.00     0.076 A 
ATOM     14  C   UNL     1     168.608 114.557 229.090  1.00  0.00     0.043 A 
ATOM     15  C   UNL     1     166.677 114.515 230.623  1.00  0.00     0.029 A 
ATOM     16  C   UNL     1     168.702 113.148 229.222  1.00  0.00     0.014 A 
ATOM     17  C   UNL     1     166.797 113.121 230.743  1.00  0.00     0.002 A 
ATOM     18  C   UNL     1     167.808 112.439 230.047  1.00  0.00     0.001 A 
BRANCH  10  19
ATOM     19  C   UNL     1     168.152 118.727 228.944  1.00  0.00     0.023 A 
ATOM     20  C   UNL     1     167.809 121.545 228.819  1.00  0.00     0.160 A 
ATOM     21  C   UNL     1     168.955 120.941 228.264  1.00  0.00     0.051 A 
ATOM     22  C   UNL     1     166.799 120.755 229.413  1.00  0.00     0.161 A 
ATOM     23  C   UNL     1     169.116 119.546 228.315  1.00  0.00     0.016 A 
ATOM     24  C   UNL     1     167.017 119.342 229.512  1.00  0.00     0.062 A 
BRANCH  20  25
ATOM     25  O   UNL     1     167.667 122.906 228.747  1.00  0.00    -0.493 OA
ATOM     26  C   UNL     1     168.538 123.602 229.657  1.00  0.00     0.278 C 
ENDBRANCH  20  25
BRANCH  22  27
ATOM     27  O   UNL     1     165.649 121.443 229.824  1.00  0.00    -0.493 OA
ATOM     28  C   UNL     1     164.779 120.520 230.658  1.00  0.00     0.278 C 
ENDBRANCH  22  27
ENDBRANCH  10  19
ENDBRANCH   7   9
ENDBRANCH   1   7
BRANCH   3  29
ATOM     29  C   UNL     1     169.111 112.637 223.246  1.00  0.00     0.012 C 
ATOM     30  C   UNL     1     168.128 113.121 222.456  1.00  0.00     0.053 C 
BRANCH  30  31
ATOM     31  C   UNL     1     167.281 112.313 221.674  1.00  0.00     0.185 C 
ATOM     32  O   UNL     1     166.127 112.061 222.101  1.00  0.00    -0.289 OA
BRANCH  31  33
ATOM     33  C   UNL     1     167.616 111.756 220.398  1.00  0.00     0.026 A 
ATOM     34  C   UNL     1     166.876 110.700 219.812  1.00  0.00     0.062 A 
ATOM     35  C   UNL     1     168.694 112.289 219.643  1.00  0.00     0.016 A 
ATOM     36  C   UNL     1     167.162 110.230 218.510  1.00  0.00     0.161 A 
ATOM     37  C   UNL     1     169.004 111.807 218.358  1.00  0.00     0.051 A 
ATOM     38  C   UNL     1     168.234 110.779 217.776  1.00  0.00     0.160 A 
BRANCH  36  39
ATOM     39  O   UNL     1     166.419 109.217 217.960  1.00  0.00    -0.493 OA
ATOM     40  C   UNL     1     165.959 108.262 218.931  1.00  0.00     0.278 C 
ENDBRANCH  36  39
BRANCH  38  41
ATOM     41  O   UNL     1     168.540 110.255 216.542  1.00  0.00    -0.493 OA
ATOM     42  C   UNL     1     169.870 109.714 216.406  1.00  0.00     0.278 C 
ENDBRANCH  38  41
ENDBRANCH  31  33
ENDBRANCH  30  31
ENDBRANCH   3  29
TORSDOF 10
ENDMDL
MODEL 5
REMARK VINA RESULT:    -7.854      3.724     12.577
REMARK INTER + INTRA:         -13.799
REMARK INTER:                 -12.533
REMARK INTRA:                  -1.266
REMARK UNBOUND:                -1.354
REMARK SMILES COc1ccc(C(=O)/C=C/c2cccc(Nc3nc(-c4ccc(OC)c(OC)c4)nc4ccccc34)c2)cc1OC
REMARK SMILES IDX 15 1 37 2 11 3 12 4 13 5 14 6 16 7 17 9 19 10 30 11 18 12
REMARK SMILES IDX 31 13 36 14 32 15 35 16 33 17 34 18 20 19 23 20 22 21 26 22
REMARK SMILES IDX 21 23 29 24 24 25 25 26 27 27 28 28 10 29 9 30 7 31 8 32
REMARK SMILES IDX 6 33 38 34 5 35 39 36 4 37 3 38 40 39 41 40 2 41 1 42
REMARK H PARENT 16 8
REMARK Flexibility Score: inf
ROOT
ATOM      1  C   UNL     1     172.257 114.711 225.504  1.00  0.00     0.040 A 
ATOM      2  C   UNL     1     171.108 114.484 224.694  1.00  0.00     0.034 A 
ATOM      3  C   UNL     1     171.210 113.929 223.385  1.00  0.00    -0.023 A 
ATOM      4  C   UNL     1     172.508 113.577 222.926  1.00  0.00     0.008 A 
ATOM      5  C   UNL     1     173.651 113.807 223.705  1.00  0.00     0.003 A 
ATOM      6  C   UNL     1     173.524 114.382 224.976  1.00  0.00     0.026 A 
ENDROOT
BRANCH   1   7
ATOM      7  N   UNL     1     172.308 115.194 226.788  1.00  0.00    -0.340 N 
ATOM      8  H   UNL     1     172.267 114.474 227.496  1.00  0.00     0.168 HD
BRANCH   7   9
ATOM      9  C   UNL     1     172.404 116.452 227.308  1.00  0.00     0.142 A 
ATOM     10  C   UNL     1     171.360 118.499 227.977  1.00  0.00     0.162 A 
ATOM     11  N   UNL     1     172.559 118.987 228.379  1.00  0.00    -0.228 NA
ATOM     12  N   UNL     1     171.313 117.249 227.450  1.00  0.00    -0.210 NA
ATOM     13  C   UNL     1     173.705 118.280 228.249  1.00  0.00     0.076 A 
ATOM     14  C   UNL     1     173.672 116.966 227.704  1.00  0.00     0.043 A 
ATOM     15  C   UNL     1     174.918 118.871 228.652  1.00  0.00     0.029 A 
ATOM     16  C   UNL     1     174.898 116.262 227.594  1.00  0.00     0.014 A 
ATOM     17  C   UNL     1     176.119 118.156 228.525  1.00  0.00     0.002 A 
ATOM     18  C   UNL     1     176.110 116.855 227.995  1.00  0.00     0.001 A 
BRANCH  10  19
ATOM     19  C   UNL     1     170.205 119.302 228.069  1.00  0.00     0.023 A 
ATOM     20  C   UNL     1     167.868 120.891 228.366  1.00  0.00     0.160 A 
ATOM     21  C   UNL     1     167.783 119.592 227.827  1.00  0.00     0.051 A 
ATOM     22  C   UNL     1     169.110 121.409 228.798  1.00  0.00     0.161 A 
ATOM     23  C   UNL     1     168.938 118.803 227.694  1.00  0.00     0.016 A 
ATOM     24  C   UNL     1     170.283 120.610 228.591  1.00  0.00     0.062 A 
BRANCH  20  25
ATOM     25  O   UNL     1     166.727 121.639 228.497  1.00  0.00    -0.493 OA
ATOM     26  C   UNL     1     165.712 120.968 229.267  1.00  0.00     0.278 C 
ENDBRANCH  20  25
BRANCH  22  27
ATOM     27  O   UNL     1     169.064 122.660 229.428  1.00  0.00    -0.493 OA
ATOM     28  C   UNL     1     169.001 122.466 230.932  1.00  0.00     0.278 C 
ENDBRANCH  22  27
ENDBRANCH  10  19
ENDBRANCH   7   9
ENDBRANCH   1   7
BRANCH   3  29
ATOM     29  C   UNL     1     170.119 113.677 222.528  1.00  0.00     0.012 C 
ATOM     30  C   UNL     1     168.920 113.129 222.826  1.00  0.00     0.053 C 
BRANCH  30  31
ATOM     31  C   UNL     1     167.916 112.873 221.874  1.00  0.00     0.185 C 
ATOM     32  O   UNL     1     166.744 113.253 222.118  1.00  0.00    -0.289 OA
BRANCH  31  33
ATOM     33  C   UNL     1     168.118 112.221 220.615  1.00  0.00     0.026 A 
ATOM     34  C   UNL     1     167.439 111.030 220.259  1.00  0.00     0.062 A 
ATOM     35  C   UNL     1     168.985 112.789 219.644  1.00  0.00     0.016 A 
ATOM     36  C   UNL     1     167.578 110.456 218.974  1.00  0.00     0.161 A 
ATOM     37  C   UNL     1     169.151 112.208 218.374  1.00  0.00     0.051 A 
ATOM     38  C   UNL     1     168.441 111.041 218.024  1.00  0.00     0.160 A 
BRANCH  36  39
ATOM     39  O   UNL     1     166.897 109.310 218.650  1.00  0.00    -0.493 OA
ATOM     40  C   UNL     1     165.646 109.564 217.989  1.00  0.00     0.278 C 
ENDBRANCH  36  39
BRANCH  38  41
ATOM     41  O   UNL     1     168.617 110.423 216.807  1.00  0.00    -0.493 OA
ATOM     42  C   UNL     1     169.879 109.751 216.625  1.00  0.00     0.278 C 
ENDBRANCH  38  41
ENDBRANCH  31  33
ENDBRANCH  30  31
ENDBRANCH   3  29
TORSDOF 10
ENDMDL
MODEL 6
REMARK VINA RESULT:    -7.777      3.594      5.749
REMARK INTER + INTRA:         -13.677
REMARK INTER:                 -12.168
REMARK INTRA:                  -1.509
REMARK UNBOUND:                -1.354
REMARK SMILES COc1ccc(C(=O)/C=C/c2cccc(Nc3nc(-c4ccc(OC)c(OC)c4)nc4ccccc34)c2)cc1OC
REMARK SMILES IDX 15 1 37 2 11 3 12 4 13 5 14 6 16 7 17 9 19 10 30 11 18 12
REMARK SMILES IDX 31 13 36 14 32 15 35 16 33 17 34 18 20 19 23 20 22 21 26 22
REMARK SMILES IDX 21 23 29 24 24 25 25 26 27 27 28 28 10 29 9 30 7 31 8 32
REMARK SMILES IDX 6 33 38 34 5 35 39 36 4 37 3 38 40 39 41 40 2 41 1 42
REMARK H PARENT 16 8
REMARK Flexibility Score: inf
ROOT
ATOM      1  C   UNL     1     168.996 114.949 226.167  1.00  0.00     0.040 A 
ATOM      2  C   UNL     1     169.160 116.333 226.458  1.00  0.00     0.034 A 
ATOM      3  C   UNL     1     169.400 116.798 227.783  1.00  0.00    -0.023 A 
ATOM      4  C   UNL     1     169.504 115.819 228.809  1.00  0.00     0.008 A 
ATOM      5  C   UNL     1     169.332 114.454 228.541  1.00  0.00     0.003 A 
ATOM      6  C   UNL     1     169.066 114.027 227.234  1.00  0.00     0.026 A 
ENDROOT
BRANCH   1   7
ATOM      7  N   UNL     1     168.805 114.356 224.944  1.00  0.00    -0.340 N 
ATOM      8  H   UNL     1     167.839 114.327 224.650  1.00  0.00     0.168 HD
BRANCH   7   9
ATOM      9  C   UNL     1     169.657 113.794 224.037  1.00  0.00     0.142 A 
ATOM     10  C   UNL     1     171.878 113.181 223.388  1.00  0.00     0.162 A 
ATOM     11  N   UNL     1     171.401 112.643 222.240  1.00  0.00    -0.228 NA
ATOM     12  N   UNL     1     170.997 113.744 224.254  1.00  0.00    -0.210 NA
ATOM     13  C   UNL     1     170.086 112.672 221.921  1.00  0.00     0.076 A 
ATOM     14  C   UNL     1     169.149 113.253 222.821  1.00  0.00     0.043 A 
ATOM     15  C   UNL     1     169.674 112.129 220.690  1.00  0.00     0.029 A 
ATOM     16  C   UNL     1     167.782 113.255 222.446  1.00  0.00     0.014 A 
ATOM     17  C   UNL     1     168.314 112.150 220.338  1.00  0.00     0.002 A 
ATOM     18  C   UNL     1     167.371 112.713 221.213  1.00  0.00     0.001 A 
BRANCH  10  19
ATOM     19  C   UNL     1     173.265 113.187 223.642  1.00  0.00     0.023 A 
ATOM     20  C   UNL     1     176.041 113.135 224.245  1.00  0.00     0.160 A 
ATOM     21  C   UNL     1     175.248 114.234 224.632  1.00  0.00     0.051 A 
ATOM     22  C   UNL     1     175.461 112.030 223.583  1.00  0.00     0.161 A 
ATOM     23  C   UNL     1     173.873 114.251 224.345  1.00  0.00     0.016 A 
ATOM     24  C   UNL     1     174.070 112.100 223.243  1.00  0.00     0.062 A 
BRANCH  20  25
ATOM     25  O   UNL     1     177.378 113.134 224.547  1.00  0.00    -0.493 OA
ATOM     26  C   UNL     1     177.633 112.847 225.934  1.00  0.00     0.278 C 
ENDBRANCH  20  25
BRANCH  22  27
ATOM     27  O   UNL     1     176.313 110.941 223.352  1.00  0.00    -0.493 OA
ATOM     28  C   UNL     1     175.731 109.698 224.001  1.00  0.00     0.278 C 
ENDBRANCH  22  27
ENDBRANCH  10  19
ENDBRANCH   7   9
ENDBRANCH   1   7
BRANCH   3  29
ATOM     29  C   UNL     1     169.572 118.150 228.145  1.00  0.00     0.012 C 
ATOM     30  C   UNL     1     169.132 119.257 227.507  1.00  0.00     0.053 C 
BRANCH  30  31
ATOM     31  C   UNL     1     169.409 120.570 227.932  1.00  0.00     0.185 C 
ATOM     32  O   UNL     1     170.458 121.126 227.523  1.00  0.00    -0.289 OA
BRANCH  31  33
ATOM     33  C   UNL     1     168.575 121.353 228.793  1.00  0.00     0.026 A 
ATOM     34  C   UNL     1     167.202 121.066 228.987  1.00  0.00     0.062 A 
ATOM     35  C   UNL     1     169.122 122.436 229.531  1.00  0.00     0.016 A 
ATOM     36  C   UNL     1     166.418 121.791 229.915  1.00  0.00     0.161 A 
ATOM     37  C   UNL     1     168.343 123.181 230.435  1.00  0.00     0.051 A 
ATOM     38  C   UNL     1     166.985 122.859 230.642  1.00  0.00     0.160 A 
BRANCH  36  39
ATOM     39  O   UNL     1     165.095 121.482 230.095  1.00  0.00    -0.493 OA
ATOM     40  C   UNL     1     164.894 120.286 230.867  1.00  0.00     0.278 C 
ENDBRANCH  36  39
BRANCH  38  41
ATOM     41  O   UNL     1     166.186 123.597 231.483  1.00  0.00    -0.493 OA
ATOM     42  C   UNL     1     166.838 124.684 232.170  1.00  0.00     0.278 C 
ENDBRANCH  38  41
ENDBRANCH  31  33
ENDBRANCH  30  31
ENDBRANCH   3  29
TORSDOF 10
ENDMDL
MODEL 7
REMARK VINA RESULT:    -7.745      2.046     12.486
REMARK INTER + INTRA:         -13.627
REMARK INTER:                 -12.250
REMARK INTRA:                  -1.377
REMARK UNBOUND:                -1.354
REMARK SMILES COc1ccc(C(=O)/C=C/c2cccc(Nc3nc(-c4ccc(OC)c(OC)c4)nc4ccccc34)c2)cc1OC
REMARK SMILES IDX 15 1 37 2 11 3 12 4 13 5 14 6 16 7 17 9 19 10 30 11 18 12
REMARK SMILES IDX 31 13 36 14 32 15 35 16 33 17 34 18 20 19 23 20 22 21 26 22
REMARK SMILES IDX 21 23 29 24 24 25 25 26 27 27 28 28 10 29 9 30 7 31 8 32
REMARK SMILES IDX 6 33 38 34 5 35 39 36 4 37 3 38 40 39 41 40 2 41 1 42
REMARK H PARENT 16 8
REMARK Flexibility Score: inf
ROOT
ATOM      1  C   UNL     1     168.719 112.151 223.168  1.00  0.00     0.040 A 
ATOM      2  C   UNL     1     168.982 111.145 222.196  1.00  0.00     0.034 A 
ATOM      3  C   UNL     1     168.294 111.107 220.949  1.00  0.00    -0.023 A 
ATOM      4  C   UNL     1     167.349 112.138 220.694  1.00  0.00     0.008 A 
ATOM      5  C   UNL     1     167.068 113.128 221.646  1.00  0.00     0.003 A 
ATOM      6  C   UNL     1     167.738 113.123 222.876  1.00  0.00     0.026 A 
ENDROOT
BRANCH   1   7
ATOM      7  N   UNL     1     169.329 112.338 224.383  1.00  0.00    -0.340 N 
ATOM      8  H   UNL     1     169.254 111.545 225.005  1.00  0.00     0.168 HD
BRANCH   7   9
ATOM      9  C   UNL     1     170.023 113.380 224.927  1.00  0.00     0.142 A 
ATOM     10  C   UNL     1     170.039 115.473 226.088  1.00  0.00     0.162 A 
ATOM     11  N   UNL     1     171.394 115.487 226.059  1.00  0.00    -0.228 NA
ATOM     12  N   UNL     1     169.390 114.425 225.520  1.00  0.00    -0.210 NA
ATOM     13  C   UNL     1     172.112 114.507 225.463  1.00  0.00     0.076 A 
ATOM     14  C   UNL     1     171.447 113.398 224.869  1.00  0.00     0.043 A 
ATOM     15  C   UNL     1     173.516 114.613 225.438  1.00  0.00     0.029 A 
ATOM     16  C   UNL     1     172.242 112.393 224.263  1.00  0.00     0.014 A 
ATOM     17  C   UNL     1     174.280 113.608 224.824  1.00  0.00     0.002 A 
ATOM     18  C   UNL     1     173.646 112.502 224.236  1.00  0.00     0.001 A 
BRANCH  10  19
ATOM     19  C   UNL     1     169.335 116.553 226.659  1.00  0.00     0.023 A 
ATOM     20  C   UNL     1     167.993 118.732 227.894  1.00  0.00     0.160 A 
ATOM     21  C   UNL     1     167.552 117.411 228.107  1.00  0.00     0.051 A 
ATOM     22  C   UNL     1     169.128 118.989 227.093  1.00  0.00     0.161 A 
ATOM     23  C   UNL     1     168.225 116.333 227.506  1.00  0.00     0.016 A 
ATOM     24  C   UNL     1     169.758 117.880 226.439  1.00  0.00     0.062 A 
BRANCH  20  25
ATOM     25  O   UNL     1     167.328 119.766 228.500  1.00  0.00    -0.493 OA
ATOM     26  C   UNL     1     166.399 119.315 229.503  1.00  0.00     0.278 C 
ENDBRANCH  20  25
BRANCH  22  27
ATOM     27  O   UNL     1     169.553 120.324 227.046  1.00  0.00    -0.493 OA
ATOM     28  C   UNL     1     170.509 120.591 228.193  1.00  0.00     0.278 C 
ENDBRANCH  22  27
ENDBRANCH  10  19
ENDBRANCH   7   9
ENDBRANCH   1   7
BRANCH   3  29
ATOM     29  C   UNL     1     168.502 110.143 219.941  1.00  0.00     0.012 C 
ATOM     30  C   UNL     1     169.293 109.048 219.971  1.00  0.00     0.053 C 
BRANCH  30  31
ATOM     31  C   UNL     1     169.468 108.176 218.879  1.00  0.00     0.185 C 
ATOM     32  O   UNL     1     168.664 107.222 218.736  1.00  0.00    -0.289 OA
BRANCH  31  33
ATOM     33  C   UNL     1     170.490 108.293 217.884  1.00  0.00     0.026 A 
ATOM     34  C   UNL     1     170.987 109.546 217.448  1.00  0.00     0.062 A 
ATOM     35  C   UNL     1     171.084 107.131 217.325  1.00  0.00     0.016 A 
ATOM     36  C   UNL     1     172.063 109.639 216.536  1.00  0.00     0.161 A 
ATOM     37  C   UNL     1     172.137 107.215 216.395  1.00  0.00     0.051 A 
ATOM     38  C   UNL     1     172.642 108.470 215.999  1.00  0.00     0.160 A 
BRANCH  36  39
ATOM     39  O   UNL     1     172.534 110.865 216.143  1.00  0.00    -0.493 OA
ATOM     40  C   UNL     1     171.664 111.949 216.508  1.00  0.00     0.278 C 
ENDBRANCH  36  39
BRANCH  38  41
ATOM     41  O   UNL     1     173.638 108.586 215.057  1.00  0.00    -0.493 OA
ATOM     42  C   UNL     1     173.775 107.470 214.154  1.00  0.00     0.278 C 
ENDBRANCH  38  41
ENDBRANCH  31  33
ENDBRANCH  30  31
ENDBRANCH   3  29
TORSDOF 10
ENDMDL
MODEL 8
REMARK VINA RESULT:    -7.724      2.203     12.324
REMARK INTER + INTRA:         -13.594
REMARK INTER:                 -11.972
REMARK INTRA:                  -1.622
REMARK UNBOUND:                -1.354
REMARK SMILES COc1ccc(C(=O)/C=C/c2cccc(Nc3nc(-c4ccc(OC)c(OC)c4)nc4ccccc34)c2)cc1OC
REMARK SMILES IDX 15 1 37 2 11 3 12 4 13 5 14 6 16 7 17 9 19 10 30 11 18 12
REMARK SMILES IDX 31 13 36 14 32 15 35 16 33 17 34 18 20 19 23 20 22 21 26 22
REMARK SMILES IDX 21 23 29 24 24 25 25 26 27 27 28 28 10 29 9 30 7 31 8 32
REMARK SMILES IDX 6 33 38 34 5 35 39 36 4 37 3 38 40 39 41 40 2 41 1 42
REMARK H PARENT 16 8
REMARK Flexibility Score: inf
ROOT
ATOM      1  C   UNL     1     168.346 112.966 222.101  1.00  0.00     0.040 A 
ATOM      2  C   UNL     1     168.732 111.925 221.210  1.00  0.00     0.034 A 
ATOM      3  C   UNL     1     167.769 111.099 220.560  1.00  0.00    -0.023 A 
ATOM      4  C   UNL     1     166.398 111.377 220.808  1.00  0.00     0.008 A 
ATOM      5  C   UNL     1     166.002 112.390 221.693  1.00  0.00     0.003 A 
ATOM      6  C   UNL     1     166.970 113.166 222.343  1.00  0.00     0.026 A 
ENDROOT
BRANCH   1   7
ATOM      7  N   UNL     1     169.152 113.861 222.759  1.00  0.00    -0.340 N 
ATOM      8  H   UNL     1     169.305 114.722 222.253  1.00  0.00     0.168 HD
BRANCH   7   9
ATOM      9  C   UNL     1     169.794 113.828 223.964  1.00  0.00     0.142 A 
ATOM     10  C   UNL     1     169.723 113.989 226.351  1.00  0.00     0.162 A 
ATOM     11  N   UNL     1     171.053 113.740 226.414  1.00  0.00    -0.228 NA
ATOM     12  N   UNL     1     169.129 114.030 225.131  1.00  0.00    -0.210 NA
ATOM     13  C   UNL     1     171.805 113.557 225.305  1.00  0.00     0.076 A 
ATOM     14  C   UNL     1     171.197 113.590 224.019  1.00  0.00     0.043 A 
ATOM     15  C   UNL     1     173.190 113.344 225.451  1.00  0.00     0.029 A 
ATOM     16  C   UNL     1     172.027 113.387 222.887  1.00  0.00     0.014 A 
ATOM     17  C   UNL     1     173.990 113.153 224.313  1.00  0.00     0.002 A 
ATOM     18  C   UNL     1     173.411 113.177 223.034  1.00  0.00     0.001 A 
BRANCH  10  19
ATOM     19  C   UNL     1     168.995 114.242 227.532  1.00  0.00     0.023 A 
ATOM     20  C   UNL     1     167.619 114.810 229.952  1.00  0.00     0.160 A 
ATOM     21  C   UNL     1     168.254 113.565 229.768  1.00  0.00     0.051 A 
ATOM     22  C   UNL     1     167.686 115.804 228.951  1.00  0.00     0.161 A 
ATOM     23  C   UNL     1     168.946 113.292 228.576  1.00  0.00     0.016 A 
ATOM     24  C   UNL     1     168.341 115.478 227.718  1.00  0.00     0.062 A 
BRANCH  20  25
ATOM     25  O   UNL     1     166.960 115.059 231.128  1.00  0.00    -0.493 OA
ATOM     26  C   UNL     1     166.193 113.929 231.583  1.00  0.00     0.278 C 
ENDBRANCH  20  25
BRANCH  22  27
ATOM     27  O   UNL     1     167.125 117.045 229.283  1.00  0.00    -0.493 OA
ATOM     28  C   UNL     1     167.570 118.087 228.274  1.00  0.00     0.278 C 
ENDBRANCH  22  27
ENDBRANCH  10  19
ENDBRANCH   7   9
ENDBRANCH   1   7
BRANCH   3  29
ATOM     29  C   UNL     1     168.077 110.051 219.667  1.00  0.00     0.012 C 
ATOM     30  C   UNL     1     169.066 109.134 219.751  1.00  0.00     0.053 C 
BRANCH  30  31
ATOM     31  C   UNL     1     169.315 108.158 218.768  1.00  0.00     0.185 C 
ATOM     32  O   UNL     1     168.571 107.148 218.720  1.00  0.00    -0.289 OA
BRANCH  31  33
ATOM     33  C   UNL     1     170.352 108.224 217.782  1.00  0.00     0.026 A 
ATOM     34  C   UNL     1     170.942 109.447 217.380  1.00  0.00     0.062 A 
ATOM     35  C   UNL     1     170.865 107.035 217.201  1.00  0.00     0.016 A 
ATOM     36  C   UNL     1     172.030 109.483 216.478  1.00  0.00     0.161 A 
ATOM     37  C   UNL     1     171.929 107.063 216.280  1.00  0.00     0.051 A 
ATOM     38  C   UNL     1     172.527 108.287 215.917  1.00  0.00     0.160 A 
BRANCH  36  39
ATOM     39  O   UNL     1     172.592 110.680 216.118  1.00  0.00    -0.493 OA
ATOM     40  C   UNL     1     171.791 111.815 216.488  1.00  0.00     0.278 C 
ENDBRANCH  36  39
BRANCH  38  41
ATOM     41  O   UNL     1     173.537 108.353 214.986  1.00  0.00    -0.493 OA
ATOM     42  C   UNL     1     174.589 107.378 215.137  1.00  0.00     0.278 C 
ENDBRANCH  38  41
ENDBRANCH  31  33
ENDBRANCH  30  31
ENDBRANCH   3  29
TORSDOF 10
ENDMDL
MODEL 9
REMARK VINA RESULT:    -7.622      3.234     11.889
REMARK INTER + INTRA:         -13.431
REMARK INTER:                 -12.168
REMARK INTRA:                  -1.263
REMARK UNBOUND:                -1.354
REMARK SMILES COc1ccc(C(=O)/C=C/c2cccc(Nc3nc(-c4ccc(OC)c(OC)c4)nc4ccccc34)c2)cc1OC
REMARK SMILES IDX 15 1 37 2 11 3 12 4 13 5 14 6 16 7 17 9 19 10 30 11 18 12
REMARK SMILES IDX 31 13 36 14 32 15 35 16 33 17 34 18 20 19 23 20 22 21 26 22
REMARK SMILES IDX 21 23 29 24 24 25 25 26 27 27 28 28 10 29 9 30 7 31 8 32
REMARK SMILES IDX 6 33 38 34 5 35 39 36 4 37 3 38 40 39 41 40 2 41 1 42
REMARK H PARENT 16 8
REMARK Flexibility Score: inf
ROOT
ATOM      1  C   UNL     1     171.290 112.411 223.226  1.00  0.00     0.040 A 
ATOM      2  C   UNL     1     170.414 111.848 222.255  1.00  0.00     0.034 A 
ATOM      3  C   UNL     1     170.183 110.443 222.178  1.00  0.00    -0.023 A 
ATOM      4  C   UNL     1     170.838 109.621 223.134  1.00  0.00     0.008 A 
ATOM      5  C   UNL     1     171.715 110.159 224.087  1.00  0.00     0.003 A 
ATOM      6  C   UNL     1     171.947 111.539 224.121  1.00  0.00     0.026 A 
ENDROOT
BRANCH   1   7
ATOM      7  N   UNL     1     171.573 113.736 223.446  1.00  0.00    -0.340 N 
ATOM      8  H   UNL     1     171.618 114.290 222.602  1.00  0.00     0.168 HD
BRANCH   7   9
ATOM      9  C   UNL     1     171.805 114.464 224.577  1.00  0.00     0.142 A 
ATOM     10  C   UNL     1     170.982 115.800 226.384  1.00  0.00     0.162 A 
ATOM     11  N   UNL     1     172.238 115.919 226.878  1.00  0.00    -0.228 NA
ATOM     12  N   UNL     1     170.798 115.080 225.247  1.00  0.00    -0.210 NA
ATOM     13  C   UNL     1     173.309 115.367 226.263  1.00  0.00     0.076 A 
ATOM     14  C   UNL     1     173.133 114.604 225.075  1.00  0.00     0.043 A 
ATOM     15  C   UNL     1     174.588 115.569 226.816  1.00  0.00     0.029 A 
ATOM     16  C   UNL     1     174.285 114.040 224.470  1.00  0.00     0.014 A 
ATOM     17  C   UNL     1     175.714 115.007 226.194  1.00  0.00     0.002 A 
ATOM     18  C   UNL     1     175.564 114.246 225.023  1.00  0.00     0.001 A 
BRANCH  10  19
ATOM     19  C   UNL     1     169.907 116.452 227.023  1.00  0.00     0.023 A 
ATOM     20  C   UNL     1     167.670 117.705 228.247  1.00  0.00     0.160 A 
ATOM     21  C   UNL     1     168.347 118.336 227.185  1.00  0.00     0.051 A 
ATOM     22  C   UNL     1     168.072 116.426 228.695  1.00  0.00     0.161 A 
ATOM     23  C   UNL     1     169.445 117.709 226.572  1.00  0.00     0.016 A 
ATOM     24  C   UNL     1     169.234 115.836 228.098  1.00  0.00     0.062 A 
BRANCH  20  25
ATOM     25  O   UNL     1     166.594 118.330 228.822  1.00  0.00    -0.493 OA
ATOM     26  C   UNL     1     166.971 119.493 229.582  1.00  0.00     0.278 C 
ENDBRANCH  20  25
BRANCH  22  27
ATOM     27  O   UNL     1     167.258 115.838 229.673  1.00  0.00    -0.493 OA
ATOM     28  C   UNL     1     168.016 115.768 230.986  1.00  0.00     0.278 C 
ENDBRANCH  22  27
ENDBRANCH  10  19
ENDBRANCH   7   9
ENDBRANCH   1   7
BRANCH   3  29
ATOM     29  C   UNL     1     169.331 109.816 221.244  1.00  0.00     0.012 C 
ATOM     30  C   UNL     1     169.321 108.525 220.846  1.00  0.00     0.053 C 
BRANCH  30  31
ATOM     31  C   UNL     1     168.454 108.016 219.861  1.00  0.00     0.185 C 
ATOM     32  O   UNL     1     168.282 106.773 219.795  1.00  0.00    -0.289 OA
BRANCH  31  33
ATOM     33  C   UNL     1     167.718 108.804 218.919  1.00  0.00     0.026 A 
ATOM     34  C   UNL     1     168.347 109.714 218.035  1.00  0.00     0.062 A 
ATOM     35  C   UNL     1     166.311 108.658 218.805  1.00  0.00     0.016 A 
ATOM     36  C   UNL     1     167.616 110.412 217.046  1.00  0.00     0.161 A 
ATOM     37  C   UNL     1     165.570 109.369 217.844  1.00  0.00     0.051 A 
ATOM     38  C   UNL     1     166.218 110.246 216.949  1.00  0.00     0.160 A 
BRANCH  36  39
ATOM     39  O   UNL     1     168.252 111.276 216.193  1.00  0.00    -0.493 OA
ATOM     40  C   UNL     1     169.349 111.971 216.808  1.00  0.00     0.278 C 
ENDBRANCH  36  39
BRANCH  38  41
ATOM     41  O   UNL     1     165.516 110.990 216.029  1.00  0.00    -0.493 OA
ATOM     42  C   UNL     1     164.694 110.237 215.114  1.00  0.00     0.278 C 
ENDBRANCH  38  41
ENDBRANCH  31  33
ENDBRANCH  30  31
ENDBRANCH   3  29
TORSDOF 10
ENDMDL
MODEL 10
REMARK VINA RESULT:    -7.609      1.205      1.937
REMARK INTER + INTRA:         -13.411
REMARK INTER:                 -11.874
REMARK INTRA:                  -1.537
REMARK UNBOUND:                -1.354
REMARK SMILES COc1ccc(C(=O)/C=C/c2cccc(Nc3nc(-c4ccc(OC)c(OC)c4)nc4ccccc34)c2)cc1OC
REMARK SMILES IDX 15 1 37 2 11 3 12 4 13 5 14 6 16 7 17 9 19 10 30 11 18 12
REMARK SMILES IDX 31 13 36 14 32 15 35 16 33 17 34 18 20 19 23 20 22 21 26 22
REMARK SMILES IDX 21 23 29 24 24 25 25 26 27 27 28 28 10 29 9 30 7 31 8 32
REMARK SMILES IDX 6 33 38 34 5 35 39 36 4 37 3 38 40 39 41 40 2 41 1 42
REMARK H PARENT 16 8
REMARK Flexibility Score: inf
ROOT
ATOM      1  C   UNL     1     171.283 113.559 222.946  1.00  0.00     0.040 A 
ATOM      2  C   UNL     1     170.568 113.599 224.176  1.00  0.00     0.034 A 
ATOM      3  C   UNL     1     171.231 113.777 225.424  1.00  0.00    -0.023 A 
ATOM      4  C   UNL     1     172.642 113.948 225.395  1.00  0.00     0.008 A 
ATOM      5  C   UNL     1     173.363 113.897 224.193  1.00  0.00     0.003 A 
ATOM      6  C   UNL     1     172.688 113.691 222.983  1.00  0.00     0.026 A 
ENDROOT
BRANCH   1   7
ATOM      7  N   UNL     1     170.779 113.440 221.674  1.00  0.00    -0.340 N 
ATOM      8  H   UNL     1     170.882 114.275 221.114  1.00  0.00     0.168 HD
BRANCH   7   9
ATOM      9  C   UNL     1     170.165 112.420 221.007  1.00  0.00     0.142 A 
ATOM     10  C   UNL     1     170.289 110.554 219.513  1.00  0.00     0.162 A 
ATOM     11  N   UNL     1     168.961 110.335 219.666  1.00  0.00    -0.228 NA
ATOM     12  N   UNL     1     170.855 111.590 220.183  1.00  0.00    -0.210 NA
ATOM     13  C   UNL     1     168.184 111.127 220.441  1.00  0.00     0.076 A 
ATOM     14  C   UNL     1     168.763 112.213 221.154  1.00  0.00     0.043 A 
ATOM     15  C   UNL     1     166.803 110.859 220.516  1.00  0.00     0.029 A 
ATOM     16  C   UNL     1     167.910 113.011 221.958  1.00  0.00     0.014 A 
ATOM     17  C   UNL     1     165.978 111.669 221.313  1.00  0.00     0.002 A 
ATOM     18  C   UNL     1     166.529 112.744 222.031  1.00  0.00     0.001 A 
BRANCH  10  19
ATOM     19  C   UNL     1     171.042 109.743 218.639  1.00  0.00     0.023 A 
ATOM     20  C   UNL     1     172.623 108.201 216.852  1.00  0.00     0.160 A 
ATOM     21  C   UNL     1     171.378 108.715 216.440  1.00  0.00     0.051 A 
ATOM     22  C   UNL     1     173.119 108.475 218.147  1.00  0.00     0.161 A 
ATOM     23  C   UNL     1     170.604 109.489 217.320  1.00  0.00     0.016 A 
ATOM     24  C   UNL     1     172.282 109.211 219.049  1.00  0.00     0.062 A 
BRANCH  20  25
ATOM     25  O   UNL     1     173.367 107.459 215.972  1.00  0.00    -0.493 OA
ATOM     26  C   UNL     1     173.239 107.919 214.614  1.00  0.00     0.278 C 
ENDBRANCH  20  25
BRANCH  22  27
ATOM     27  O   UNL     1     174.418 108.019 218.413  1.00  0.00    -0.493 OA
ATOM     28  C   UNL     1     174.353 106.830 219.354  1.00  0.00     0.278 C 
ENDBRANCH  22  27
ENDBRANCH  10  19
ENDBRANCH   7   9
ENDBRANCH   1   7
BRANCH   3  29
ATOM     29  C   UNL     1     170.589 113.825 226.679  1.00  0.00     0.012 C 
ATOM     30  C   UNL     1     169.267 113.902 226.949  1.00  0.00     0.053 C 
BRANCH  30  31
ATOM     31  C   UNL     1     168.736 114.000 228.249  1.00  0.00     0.185 C 
ATOM     32  O   UNL     1     168.643 112.956 228.941  1.00  0.00    -0.289 OA
BRANCH  31  33
ATOM     33  C   UNL     1     168.302 115.212 228.875  1.00  0.00     0.026 A 
ATOM     34  C   UNL     1     168.738 116.489 228.444  1.00  0.00     0.062 A 
ATOM     35  C   UNL     1     167.363 115.173 229.940  1.00  0.00     0.016 A 
ATOM     36  C   UNL     1     168.223 117.677 229.011  1.00  0.00     0.161 A 
ATOM     37  C   UNL     1     166.868 116.350 230.530  1.00  0.00     0.051 A 
ATOM     38  C   UNL     1     167.287 117.613 230.064  1.00  0.00     0.160 A 
BRANCH  36  39
ATOM     39  O   UNL     1     168.651 118.900 228.564  1.00  0.00    -0.493 OA
ATOM     40  C   UNL     1     168.082 119.269 227.296  1.00  0.00     0.278 C 
ENDBRANCH  36  39
BRANCH  38  41
ATOM     41  O   UNL     1     166.856 118.781 230.651  1.00  0.00    -0.493 OA
ATOM     42  C   UNL     1     166.980 118.841 232.086  1.00  0.00     0.278 C 
ENDBRANCH  38  41
ENDBRANCH  31  33
ENDBRANCH  30  31
ENDBRANCH   3  29
TORSDOF 10
ENDMDL
MODEL 11
REMARK VINA RESULT:    -7.549      3.689     12.497
REMARK INTER + INTRA:         -13.316
REMARK INTER:                 -11.826
REMARK INTRA:                  -1.490
REMARK UNBOUND:                -1.354
REMARK SMILES COc1ccc(C(=O)/C=C/c2cccc(Nc3nc(-c4ccc(OC)c(OC)c4)nc4ccccc34)c2)cc1OC
REMARK SMILES IDX 15 1 37 2 11 3 12 4 13 5 14 6 16 7 17 9 19 10 30 11 18 12
REMARK SMILES IDX 31 13 36 14 32 15 35 16 33 17 34 18 20 19 23 20 22 21 26 22
REMARK SMILES IDX 21 23 29 24 24 25 25 26 27 27 28 28 10 29 9 30 7 31 8 32
REMARK SMILES IDX 6 33 38 34 5 35 39 36 4 37 3 38 40 39 41 40 2 41 1 42
REMARK H PARENT 16 8
REMARK Flexibility Score: inf
ROOT
ATOM      1  C   UNL     1     171.872 114.435 225.423  1.00  0.00     0.040 A 
ATOM      2  C   UNL     1     170.632 113.969 224.900  1.00  0.00     0.034 A 
ATOM      3  C   UNL     1     170.521 113.459 223.574  1.00  0.00    -0.023 A 
ATOM      4  C   UNL     1     171.710 113.400 222.797  1.00  0.00     0.008 A 
ATOM      5  C   UNL     1     172.935 113.867 223.292  1.00  0.00     0.003 A 
ATOM      6  C   UNL     1     173.009 114.392 224.588  1.00  0.00     0.026 A 
ENDROOT
BRANCH   1   7
ATOM      7  N   UNL     1     172.136 114.907 226.684  1.00  0.00    -0.340 N 
ATOM      8  H   UNL     1     172.156 114.189 227.394  1.00  0.00     0.168 HD
BRANCH   7   9
ATOM      9  C   UNL     1     172.382 116.156 227.180  1.00  0.00     0.142 A 
ATOM     10  C   UNL     1     171.570 118.259 227.982  1.00  0.00     0.162 A 
ATOM     11  N   UNL     1     172.841 118.672 228.206  1.00  0.00    -0.228 NA
ATOM     12  N   UNL     1     171.373 117.016 227.473  1.00  0.00    -0.210 NA
ATOM     13  C   UNL     1     173.912 117.897 227.916  1.00  0.00     0.076 A 
ATOM     14  C   UNL     1     173.723 116.590 227.388  1.00  0.00     0.043 A 
ATOM     15  C   UNL     1     175.203 118.413 228.139  1.00  0.00     0.029 A 
ATOM     16  C   UNL     1     174.875 115.814 227.106  1.00  0.00     0.014 A 
ATOM     17  C   UNL     1     176.329 117.627 227.844  1.00  0.00     0.002 A 
ATOM     18  C   UNL     1     176.166 116.332 227.326  1.00  0.00     0.001 A 
BRANCH  10  19
ATOM     19  C   UNL     1     170.490 119.130 228.236  1.00  0.00     0.023 A 
ATOM     20  C   UNL     1     168.279 120.868 228.638  1.00  0.00     0.160 A 
ATOM     21  C   UNL     1     169.553 121.393 228.342  1.00  0.00     0.051 A 
ATOM     22  C   UNL     1     168.076 119.472 228.705  1.00  0.00     0.161 A 
ATOM     23  C   UNL     1     170.642 120.531 228.129  1.00  0.00     0.016 A 
ATOM     24  C   UNL     1     169.216 118.615 228.550  1.00  0.00     0.062 A 
BRANCH  20  25
ATOM     25  O   UNL     1     167.229 121.728 228.829  1.00  0.00    -0.493 OA
ATOM     26  C   UNL     1     167.220 122.307 230.147  1.00  0.00     0.278 C 
ENDBRANCH  20  25
BRANCH  22  27
ATOM     27  O   UNL     1     166.750 119.055 228.886  1.00  0.00    -0.493 OA
ATOM     28  C   UNL     1     166.592 118.463 230.274  1.00  0.00     0.278 C 
ENDBRANCH  22  27
ENDBRANCH  10  19
ENDBRANCH   7   9
ENDBRANCH   1   7
BRANCH   3  29
ATOM     29  C   UNL     1     169.329 112.982 222.990  1.00  0.00     0.012 C 
ATOM     30  C   UNL     1     168.933 111.704 222.803  1.00  0.00     0.053 C 
BRANCH  30  31
ATOM     31  C   UNL     1     167.738 111.340 222.156  1.00  0.00     0.185 C 
ATOM     32  O   UNL     1     166.687 111.250 222.838  1.00  0.00    -0.289 OA
BRANCH  31  33
ATOM     33  C   UNL     1     167.603 111.076 220.755  1.00  0.00     0.026 A 
ATOM     34  C   UNL     1     168.649 111.322 219.832  1.00  0.00     0.062 A 
ATOM     35  C   UNL     1     166.410 110.502 220.244  1.00  0.00     0.016 A 
ATOM     36  C   UNL     1     168.533 110.966 218.469  1.00  0.00     0.161 A 
ATOM     37  C   UNL     1     166.274 110.171 218.884  1.00  0.00     0.051 A 
ATOM     38  C   UNL     1     167.338 110.391 217.985  1.00  0.00     0.160 A 
BRANCH  36  39
ATOM     39  O   UNL     1     169.566 111.201 217.600  1.00  0.00    -0.493 OA
ATOM     40  C   UNL     1     169.746 112.595 217.299  1.00  0.00     0.278 C 
ENDBRANCH  36  39
BRANCH  38  41
ATOM     41  O   UNL     1     167.220 110.120 216.642  1.00  0.00    -0.493 OA
ATOM     42  C   UNL     1     165.967 110.500 216.036  1.00  0.00     0.278 C 
ENDBRANCH  38  41
ENDBRANCH  31  33
ENDBRANCH  30  31
ENDBRANCH   3  29
TORSDOF 10
ENDMDL
MODEL 12
REMARK VINA RESULT:    -7.511      3.531     13.165
REMARK INTER + INTRA:         -13.256
REMARK INTER:                 -11.966
REMARK INTRA:                  -1.289
REMARK UNBOUND:                -1.354
REMARK SMILES COc1ccc(C(=O)/C=C/c2cccc(Nc3nc(-c4ccc(OC)c(OC)c4)nc4ccccc34)c2)cc1OC
REMARK SMILES IDX 15 1 37 2 11 3 12 4 13 5 14 6 16 7 17 9 19 10 30 11 18 12
REMARK SMILES IDX 31 13 36 14 32 15 35 16 33 17 34 18 20 19 23 20 22 21 26 22
REMARK SMILES IDX 21 23 29 24 24 25 25 26 27 27 28 28 10 29 9 30 7 31 8 32
REMARK SMILES IDX 6 33 38 34 5 35 39 36 4 37 3 38 40 39 41 40 2 41 1 42
REMARK H PARENT 16 8
REMARK Flexibility Score: inf
ROOT
ATOM      1  C   UNL     1     171.022 114.913 226.077  1.00  0.00     0.040 A 
ATOM      2  C   UNL     1     171.498 114.355 224.857  1.00  0.00     0.034 A 
ATOM      3  C   UNL     1     170.615 113.767 223.906  1.00  0.00    -0.023 A 
ATOM      4  C   UNL     1     169.226 113.787 224.207  1.00  0.00     0.008 A 
ATOM      5  C   UNL     1     168.743 114.320 225.410  1.00  0.00     0.003 A 
ATOM      6  C   UNL     1     169.636 114.864 226.341  1.00  0.00     0.026 A 
ENDROOT
BRANCH   1   7
ATOM      7  N   UNL     1     171.743 115.547 227.059  1.00  0.00    -0.340 N 
ATOM      8  H   UNL     1     172.387 114.942 227.548  1.00  0.00     0.168 HD
BRANCH   7   9
ATOM      9  C   UNL     1     171.770 116.835 227.512  1.00  0.00     0.142 A 
ATOM     10  C   UNL     1     170.608 118.809 228.202  1.00  0.00     0.162 A 
ATOM     11  N   UNL     1     171.789 119.425 228.451  1.00  0.00    -0.228 NA
ATOM     12  N   UNL     1     170.628 117.534 227.737  1.00  0.00    -0.210 NA
ATOM     13  C   UNL     1     172.978 118.821 228.227  1.00  0.00     0.076 A 
ATOM     14  C   UNL     1     173.017 117.483 227.746  1.00  0.00     0.043 A 
ATOM     15  C   UNL     1     174.163 119.542 228.471  1.00  0.00     0.029 A 
ATOM     16  C   UNL     1     174.288 116.890 227.533  1.00  0.00     0.014 A 
ATOM     17  C   UNL     1     175.409 118.935 228.245  1.00  0.00     0.002 A 
ATOM     18  C   UNL     1     175.471 117.613 227.775  1.00  0.00     0.001 A 
BRANCH  10  19
ATOM     19  C   UNL     1     169.396 119.506 228.385  1.00  0.00     0.023 A 
ATOM     20  C   UNL     1     166.984 120.929 228.863  1.00  0.00     0.160 A 
ATOM     21  C   UNL     1     167.000 119.521 228.905  1.00  0.00     0.051 A 
ATOM     22  C   UNL     1     168.171 121.654 228.617  1.00  0.00     0.161 A 
ATOM     23  C   UNL     1     168.198 118.820 228.682  1.00  0.00     0.016 A 
ATOM     24  C   UNL     1     169.365 120.915 228.328  1.00  0.00     0.062 A 
BRANCH  20  25
ATOM     25  O   UNL     1     165.807 121.593 229.095  1.00  0.00    -0.493 OA
ATOM     26  C   UNL     1     165.202 121.224 230.348  1.00  0.00     0.278 C 
ENDBRANCH  20  25
BRANCH  22  27
ATOM     27  O   UNL     1     168.068 123.049 228.716  1.00  0.00    -0.493 OA
ATOM     28  C   UNL     1     168.717 123.513 230.007  1.00  0.00     0.278 C 
ENDBRANCH  22  27
ENDBRANCH  10  19
ENDBRANCH   7   9
ENDBRANCH   1   7
BRANCH   3  29
ATOM     29  C   UNL     1     171.014 113.195 222.680  1.00  0.00     0.012 C 
ATOM     30  C   UNL     1     170.925 111.908 222.279  1.00  0.00     0.053 C 
BRANCH  30  31
ATOM     31  C   UNL     1     171.407 111.436 221.044  1.00  0.00     0.185 C 
ATOM     32  O   UNL     1     172.605 111.064 220.969  1.00  0.00    -0.289 OA
BRANCH  31  33
ATOM     33  C   UNL     1     170.634 111.318 219.845  1.00  0.00     0.026 A 
ATOM     34  C   UNL     1     171.103 110.620 218.705  1.00  0.00     0.062 A 
ATOM     35  C   UNL     1     169.327 111.868 219.777  1.00  0.00     0.016 A 
ATOM     36  C   UNL     1     170.287 110.433 217.565  1.00  0.00     0.161 A 
ATOM     37  C   UNL     1     168.519 111.711 218.636  1.00  0.00     0.051 A 
ATOM     38  C   UNL     1     168.988 110.983 217.523  1.00  0.00     0.160 A 
BRANCH  36  39
ATOM     39  O   UNL     1     170.760 109.739 216.481  1.00  0.00    -0.493 OA
ATOM     40  C   UNL     1     172.183 109.850 216.317  1.00  0.00     0.278 C 
ENDBRANCH  36  39
BRANCH  38  41
ATOM     41  O   UNL     1     168.241 110.851 216.376  1.00  0.00    -0.493 OA
ATOM     42  C   UNL     1     166.842 110.561 216.573  1.00  0.00     0.278 C 
ENDBRANCH  38  41
ENDBRANCH  31  33
ENDBRANCH  30  31
ENDBRANCH   3  29
TORSDOF 10
ENDMDL
MODEL 13
REMARK VINA RESULT:    -7.452      6.390      9.977
REMARK INTER + INTRA:         -13.162
REMARK INTER:                 -11.660
REMARK INTRA:                  -1.502
REMARK UNBOUND:                -1.354
REMARK SMILES COc1ccc(C(=O)/C=C/c2cccc(Nc3nc(-c4ccc(OC)c(OC)c4)nc4ccccc34)c2)cc1OC
REMARK SMILES IDX 15 1 37 2 11 3 12 4 13 5 14 6 16 7 17 9 19 10 30 11 18 12
REMARK SMILES IDX 31 13 36 14 32 15 35 16 33 17 34 18 20 19 23 20 22 21 26 22
REMARK SMILES IDX 21 23 29 24 24 25 25 26 27 27 28 28 10 29 9 30 7 31 8 32
REMARK SMILES IDX 6 33 38 34 5 35 39 36 4 37 3 38 40 39 41 40 2 41 1 42
REMARK H PARENT 16 8
REMARK Flexibility Score: inf
ROOT
ATOM      1  C   UNL     1     173.945 113.415 223.065  1.00  0.00     0.040 A 
ATOM      2  C   UNL     1     175.033 114.219 223.507  1.00  0.00     0.034 A 
ATOM      3  C   UNL     1     176.251 113.643 223.973  1.00  0.00    -0.023 A 
ATOM      4  C   UNL     1     176.353 112.226 223.949  1.00  0.00     0.008 A 
ATOM      5  C   UNL     1     175.285 111.419 223.531  1.00  0.00     0.003 A 
ATOM      6  C   UNL     1     174.089 112.011 223.107  1.00  0.00     0.026 A 
ENDROOT
BRANCH   1   7
ATOM      7  N   UNL     1     172.739 113.826 222.553  1.00  0.00    -0.340 N 
ATOM      8  H   UNL     1     172.822 114.448 221.762  1.00  0.00     0.168 HD
BRANCH   7   9
ATOM      9  C   UNL     1     171.444 113.564 222.895  1.00  0.00     0.142 A 
ATOM     10  C   UNL     1     169.371 112.453 222.450  1.00  0.00     0.162 A 
ATOM     11  N   UNL     1     168.833 112.994 223.570  1.00  0.00    -0.228 NA
ATOM     12  N   UNL     1     170.658 112.753 222.140  1.00  0.00    -0.210 NA
ATOM     13  C   UNL     1     169.527 113.837 224.368  1.00  0.00     0.076 A 
ATOM     14  C   UNL     1     170.879 114.157 224.060  1.00  0.00     0.043 A 
ATOM     15  C   UNL     1     168.885 114.391 225.492  1.00  0.00     0.029 A 
ATOM     16  C   UNL     1     171.567 115.041 224.930  1.00  0.00     0.014 A 
ATOM     17  C   UNL     1     169.586 115.270 226.334  1.00  0.00     0.002 A 
ATOM     18  C   UNL     1     170.923 115.596 226.053  1.00  0.00     0.001 A 
BRANCH  10  19
ATOM     19  C   UNL     1     168.584 111.635 221.613  1.00  0.00     0.023 A 
ATOM     20  C   UNL     1     167.023 110.058 219.839  1.00  0.00     0.160 A 
ATOM     21  C   UNL     1     166.406 111.001 220.685  1.00  0.00     0.051 A 
ATOM     22  C   UNL     1     168.428 109.907 219.836  1.00  0.00     0.161 A 
ATOM     23  C   UNL     1     167.181 111.790 221.552  1.00  0.00     0.016 A 
ATOM     24  C   UNL     1     169.191 110.676 220.776  1.00  0.00     0.062 A 
BRANCH  20  25
ATOM     25  O   UNL     1     166.247 109.308 218.994  1.00  0.00    -0.493 OA
ATOM     26  C   UNL     1     165.894 110.016 217.792  1.00  0.00     0.278 C 
ENDBRANCH  20  25
BRANCH  22  27
ATOM     27  O   UNL     1     168.946 109.030 218.874  1.00  0.00    -0.493 OA
ATOM     28  C   UNL     1     169.685 107.900 219.567  1.00  0.00     0.278 C 
ENDBRANCH  22  27
ENDBRANCH  10  19
ENDBRANCH   7   9
ENDBRANCH   1   7
BRANCH   3  29
ATOM     29  C   UNL     1     177.369 114.376 224.425  1.00  0.00     0.012 C 
ATOM     30  C   UNL     1     178.405 113.953 225.181  1.00  0.00     0.053 C 
BRANCH  30  31
ATOM     31  C   UNL     1     179.448 114.790 225.622  1.00  0.00     0.185 C 
ATOM     32  O   UNL     1     179.152 115.863 226.202  1.00  0.00    -0.289 OA
BRANCH  31  33
ATOM     33  C   UNL     1     180.845 114.512 225.483  1.00  0.00     0.026 A 
ATOM     34  C   UNL     1     181.401 113.987 224.290  1.00  0.00     0.062 A 
ATOM     35  C   UNL     1     181.744 114.807 226.542  1.00  0.00     0.016 A 
ATOM     36  C   UNL     1     182.795 113.812 224.138  1.00  0.00     0.161 A 
ATOM     37  C   UNL     1     183.130 114.609 226.410  1.00  0.00     0.051 A 
ATOM     38  C   UNL     1     183.670 114.117 225.203  1.00  0.00     0.160 A 
BRANCH  36  39
ATOM     39  O   UNL     1     183.308 113.316 222.967  1.00  0.00    -0.493 OA
ATOM     40  C   UNL     1     183.351 114.291 221.912  1.00  0.00     0.278 C 
ENDBRANCH  36  39
BRANCH  38  41
ATOM     41  O   UNL     1     185.015 113.869 225.059  1.00  0.00    -0.493 OA
ATOM     42  C   UNL     1     185.880 115.015 225.198  1.00  0.00     0.278 C 
ENDBRANCH  38  41
ENDBRANCH  31  33
ENDBRANCH  30  31
ENDBRANCH   3  29
TORSDOF 10
ENDMDL
MODEL 14
REMARK VINA RESULT:    -7.414      5.120      8.110
REMARK INTER + INTRA:         -13.102
REMARK INTER:                 -11.604
REMARK INTRA:                  -1.497
REMARK UNBOUND:                -1.354
REMARK SMILES COc1ccc(C(=O)/C=C/c2cccc(Nc3nc(-c4ccc(OC)c(OC)c4)nc4ccccc34)c2)cc1OC
REMARK SMILES IDX 15 1 37 2 11 3 12 4 13 5 14 6 16 7 17 9 19 10 30 11 18 12
REMARK SMILES IDX 31 13 36 14 32 15 35 16 33 17 34 18 20 19 23 20 22 21 26 22
REMARK SMILES IDX 21 23 29 24 24 25 25 26 27 27 28 28 10 29 9 30 7 31 8 32
REMARK SMILES IDX 6 33 38 34 5 35 39 36 4 37 3 38 40 39 41 40 2 41 1 42
REMARK H PARENT 16 8
REMARK Flexibility Score: inf
ROOT
ATOM      1  C   UNL     1     172.040 112.959 222.669  1.00  0.00     0.040 A 
ATOM      2  C   UNL     1     173.190 113.765 222.903  1.00  0.00     0.034 A 
ATOM      3  C   UNL     1     174.129 113.452 223.929  1.00  0.00    -0.023 A 
ATOM      4  C   UNL     1     173.892 112.278 224.694  1.00  0.00     0.008 A 
ATOM      5  C   UNL     1     172.757 111.482 224.485  1.00  0.00     0.003 A 
ATOM      6  C   UNL     1     171.835 111.829 223.490  1.00  0.00     0.026 A 
ENDROOT
BRANCH   1   7
ATOM      7  N   UNL     1     171.081 113.110 221.698  1.00  0.00    -0.340 N 
ATOM      8  H   UNL     1     170.950 114.066 221.399  1.00  0.00     0.168 HD
BRANCH   7   9
ATOM      9  C   UNL     1     170.264 112.230 221.049  1.00  0.00     0.142 A 
ATOM     10  C   UNL     1     169.979 110.426 219.502  1.00  0.00     0.162 A 
ATOM     11  N   UNL     1     168.646 110.422 219.742  1.00  0.00    -0.228 NA
ATOM     12  N   UNL     1     170.752 111.330 220.157  1.00  0.00    -0.210 NA
ATOM     13  C   UNL     1     168.063 111.300 220.590  1.00  0.00     0.076 A 
ATOM     14  C   UNL     1     168.860 112.250 221.289  1.00  0.00     0.043 A 
ATOM     15  C   UNL     1     166.666 111.259 220.756  1.00  0.00     0.029 A 
ATOM     16  C   UNL     1     168.204 113.146 222.171  1.00  0.00     0.014 A 
ATOM     17  C   UNL     1     166.040 112.163 221.629  1.00  0.00     0.002 A 
ATOM     18  C   UNL     1     166.806 113.105 222.334  1.00  0.00     0.001 A 
BRANCH  10  19
ATOM     19  C   UNL     1     170.530 109.536 218.557  1.00  0.00     0.023 A 
ATOM     20  C   UNL     1     171.733 107.807 216.651  1.00  0.00     0.160 A 
ATOM     21  C   UNL     1     170.829 108.805 216.236  1.00  0.00     0.051 A 
ATOM     22  C   UNL     1     172.080 107.674 218.014  1.00  0.00     0.161 A 
ATOM     23  C   UNL     1     170.246 109.668 217.179  1.00  0.00     0.016 A 
ATOM     24  C   UNL     1     171.422 108.523 218.964  1.00  0.00     0.062 A 
BRANCH  20  25
ATOM     25  O   UNL     1     172.299 106.984 215.712  1.00  0.00    -0.493 OA
ATOM     26  C   UNL     1     172.090 107.452 214.367  1.00  0.00     0.278 C 
ENDBRANCH  20  25
BRANCH  22  27
ATOM     27  O   UNL     1     173.077 106.732 218.302  1.00  0.00    -0.493 OA
ATOM     28  C   UNL     1     174.359 107.451 218.678  1.00  0.00     0.278 C 
ENDBRANCH  22  27
ENDBRANCH  10  19
ENDBRANCH   7   9
ENDBRANCH   1   7
BRANCH   3  29
ATOM     29  C   UNL     1     175.287 114.203 224.218  1.00  0.00     0.012 C 
ATOM     30  C   UNL     1     176.464 113.777 224.729  1.00  0.00     0.053 C 
BRANCH  30  31
ATOM     31  C   UNL     1     177.542 114.630 225.029  1.00  0.00     0.185 C 
ATOM     32  O   UNL     1     177.302 115.832 225.302  1.00  0.00    -0.289 OA
BRANCH  31  33
ATOM     33  C   UNL     1     178.919 114.237 225.073  1.00  0.00     0.026 A 
ATOM     34  C   UNL     1     179.320 112.881 225.143  1.00  0.00     0.062 A 
ATOM     35  C   UNL     1     179.946 115.214 224.998  1.00  0.00     0.016 A 
ATOM     36  C   UNL     1     180.683 112.508 225.088  1.00  0.00     0.161 A 
ATOM     37  C   UNL     1     181.306 114.854 224.971  1.00  0.00     0.051 A 
ATOM     38  C   UNL     1     181.686 113.497 225.007  1.00  0.00     0.160 A 
BRANCH  36  39
ATOM     39  O   UNL     1     181.043 111.187 225.141  1.00  0.00    -0.493 OA
ATOM     40  C   UNL     1     180.255 110.351 224.277  1.00  0.00     0.278 C 
ENDBRANCH  36  39
BRANCH  38  41
ATOM     41  O   UNL     1     183.008 113.115 225.029  1.00  0.00    -0.493 OA
ATOM     42  C   UNL     1     183.898 113.901 224.210  1.00  0.00     0.278 C 
ENDBRANCH  38  41
ENDBRANCH  31  33
ENDBRANCH  30  31
ENDBRANCH   3  29
TORSDOF 10
ENDMDL
MODEL 15
REMARK VINA RESULT:    -7.318      6.570      9.764
REMARK INTER + INTRA:         -12.950
REMARK INTER:                 -11.391
REMARK INTRA:                  -1.560
REMARK UNBOUND:                -1.354
REMARK SMILES COc1ccc(C(=O)/C=C/c2cccc(Nc3nc(-c4ccc(OC)c(OC)c4)nc4ccccc34)c2)cc1OC
REMARK SMILES IDX 15 1 37 2 11 3 12 4 13 5 14 6 16 7 17 9 19 10 30 11 18 12
REMARK SMILES IDX 31 13 36 14 32 15 35 16 33 17 34 18 20 19 23 20 22 21 26 22
REMARK SMILES IDX 21 23 29 24 24 25 25 26 27 27 28 28 10 29 9 30 7 31 8 32
REMARK SMILES IDX 6 33 38 34 5 35 39 36 4 37 3 38 40 39 41 40 2 41 1 42
REMARK H PARENT 16 8
REMARK Flexibility Score: inf
ROOT
ATOM      1  C   UNL     1     174.190 112.680 223.826  1.00  0.00     0.040 A 
ATOM      2  C   UNL     1     175.237 112.988 224.740  1.00  0.00     0.034 A 
ATOM      3  C   UNL     1     176.373 113.754 224.349  1.00  0.00    -0.023 A 
ATOM      4  C   UNL     1     176.409 114.232 223.011  1.00  0.00     0.008 A 
ATOM      5  C   UNL     1     175.392 113.926 222.095  1.00  0.00     0.003 A 
ATOM      6  C   UNL     1     174.302 113.145 222.498  1.00  0.00     0.026 A 
ENDROOT
BRANCH   1   7
ATOM      7  N   UNL     1     173.024 111.997 224.070  1.00  0.00    -0.340 N 
ATOM      8  H   UNL     1     173.160 111.110 224.534  1.00  0.00     0.168 HD
BRANCH   7   9
ATOM      9  C   UNL     1     171.712 112.271 223.814  1.00  0.00     0.142 A 
ATOM     10  C   UNL     1     169.773 112.007 222.436  1.00  0.00     0.162 A 
ATOM     11  N   UNL     1     169.057 112.784 223.283  1.00  0.00    -0.228 NA
ATOM     12  N   UNL     1     171.080 111.773 222.720  1.00  0.00    -0.210 NA
ATOM     13  C   UNL     1     169.607 113.351 224.381  1.00  0.00     0.076 A 
ATOM     14  C   UNL     1     170.973 113.111 224.697  1.00  0.00     0.043 A 
ATOM     15  C   UNL     1     168.807 114.181 225.190  1.00  0.00     0.029 A 
ATOM     16  C   UNL     1     171.503 113.722 225.862  1.00  0.00     0.014 A 
ATOM     17  C   UNL     1     169.357 114.780 226.335  1.00  0.00     0.002 A 
ATOM     18  C   UNL     1     170.703 114.553 226.669  1.00  0.00     0.001 A 
BRANCH  10  19
ATOM     19  C   UNL     1     169.172 111.496 221.267  1.00  0.00     0.023 A 
ATOM     20  C   UNL     1     167.957 110.575 218.870  1.00  0.00     0.160 A 
ATOM     21  C   UNL     1     167.181 110.783 220.027  1.00  0.00     0.051 A 
ATOM     22  C   UNL     1     169.342 110.853 218.874  1.00  0.00     0.161 A 
ATOM     23  C   UNL     1     167.782 111.252 221.208  1.00  0.00     0.016 A 
ATOM     24  C   UNL     1     169.943 111.268 220.108  1.00  0.00     0.062 A 
BRANCH  20  25
ATOM     25  O   UNL     1     167.347 110.128 217.726  1.00  0.00    -0.493 OA
ATOM     26  C   UNL     1     165.971 109.764 217.938  1.00  0.00     0.278 C 
ENDBRANCH  20  25
BRANCH  22  27
ATOM     27  O   UNL     1     169.995 110.727 217.640  1.00  0.00    -0.493 OA
ATOM     28  C   UNL     1     170.458 112.094 217.172  1.00  0.00     0.278 C 
ENDBRANCH  22  27
ENDBRANCH  10  19
ENDBRANCH   7   9
ENDBRANCH   1   7
BRANCH   3  29
ATOM     29  C   UNL     1     177.447 114.096 225.198  1.00  0.00     0.012 C 
ATOM     30  C   UNL     1     178.396 115.041 225.019  1.00  0.00     0.053 C 
BRANCH  30  31
ATOM     31  C   UNL     1     179.460 115.262 225.913  1.00  0.00     0.185 C 
ATOM     32  O   UNL     1     179.203 115.725 227.052  1.00  0.00    -0.289 OA
BRANCH  31  33
ATOM     33  C   UNL     1     180.839 114.983 225.644  1.00  0.00     0.026 A 
ATOM     34  C   UNL     1     181.821 114.954 226.664  1.00  0.00     0.062 A 
ATOM     35  C   UNL     1     181.263 114.671 224.326  1.00  0.00     0.016 A 
ATOM     36  C   UNL     1     183.158 114.581 226.393  1.00  0.00     0.161 A 
ATOM     37  C   UNL     1     182.598 114.326 224.042  1.00  0.00     0.051 A 
ATOM     38  C   UNL     1     183.555 114.269 225.076  1.00  0.00     0.160 A 
BRANCH  36  39
ATOM     39  O   UNL     1     184.085 114.546 227.402  1.00  0.00    -0.493 OA
ATOM     40  C   UNL     1     183.531 114.148 228.667  1.00  0.00     0.278 C 
ENDBRANCH  36  39
BRANCH  38  41
ATOM     41  O   UNL     1     184.877 113.981 224.824  1.00  0.00    -0.493 OA
ATOM     42  C   UNL     1     185.676 115.083 224.350  1.00  0.00     0.278 C 
ENDBRANCH  38  41
ENDBRANCH  31  33
ENDBRANCH  30  31
ENDBRANCH   3  29
TORSDOF 10
ENDMDL
MODEL 16
REMARK VINA RESULT:    -7.289      5.010      6.706
REMARK INTER + INTRA:         -12.904
REMARK INTER:                 -11.256
REMARK INTRA:                  -1.647
REMARK UNBOUND:                -1.354
REMARK SMILES COc1ccc(C(=O)/C=C/c2cccc(Nc3nc(-c4ccc(OC)c(OC)c4)nc4ccccc34)c2)cc1OC
REMARK SMILES IDX 15 1 37 2 11 3 12 4 13 5 14 6 16 7 17 9 19 10 30 11 18 12
REMARK SMILES IDX 31 13 36 14 32 15 35 16 33 17 34 18 20 19 23 20 22 21 26 22
REMARK SMILES IDX 21 23 29 24 24 25 25 26 27 27 28 28 10 29 9 30 7 31 8 32
REMARK SMILES IDX 6 33 38 34 5 35 39 36 4 37 3 38 40 39 41 40 2 41 1 42
REMARK H PARENT 16 8
REMARK Flexibility Score: inf
ROOT
ATOM      1  C   UNL     1     170.246 111.425 221.936  1.00  0.00     0.040 A 
ATOM      2  C   UNL     1     171.650 111.514 222.155  1.00  0.00     0.034 A 
ATOM      3  C   UNL     1     172.228 112.585 222.896  1.00  0.00    -0.023 A 
ATOM      4  C   UNL     1     171.342 113.553 223.442  1.00  0.00     0.008 A 
ATOM      5  C   UNL     1     169.959 113.488 223.223  1.00  0.00     0.003 A 
ATOM      6  C   UNL     1     169.421 112.441 222.465  1.00  0.00     0.026 A 
ENDROOT
BRANCH   1   7
ATOM      7  N   UNL     1     169.550 110.437 221.286  1.00  0.00    -0.340 N 
ATOM      8  H   UNL     1     169.015 109.841 221.902  1.00  0.00     0.168 HD
BRANCH   7   9
ATOM      9  C   UNL     1     169.429 110.092 219.971  1.00  0.00     0.142 A 
ATOM     10  C   UNL     1     170.425 109.338 217.930  1.00  0.00     0.162 A 
ATOM     11  N   UNL     1     169.215 109.365 217.321  1.00  0.00    -0.228 NA
ATOM     12  N   UNL     1     170.502 109.705 219.234  1.00  0.00    -0.210 NA
ATOM     13  C   UNL     1     168.094 109.766 217.963  1.00  0.00     0.076 A 
ATOM     14  C   UNL     1     168.156 110.148 219.333  1.00  0.00     0.043 A 
ATOM     15  C   UNL     1     166.880 109.806 217.250  1.00  0.00     0.029 A 
ATOM     16  C   UNL     1     166.954 110.555 219.964  1.00  0.00     0.014 A 
ATOM     17  C   UNL     1     165.705 110.220 217.897  1.00  0.00     0.002 A 
ATOM     18  C   UNL     1     165.741 110.597 219.250  1.00  0.00     0.001 A 
BRANCH  10  19
ATOM     19  C   UNL     1     171.576 108.979 217.198  1.00  0.00     0.023 A 
ATOM     20  C   UNL     1     173.866 108.145 215.738  1.00  0.00     0.160 A 
ATOM     21  C   UNL     1     173.978 108.504 217.096  1.00  0.00     0.051 A 
ATOM     22  C   UNL     1     172.610 108.161 215.093  1.00  0.00     0.161 A 
ATOM     23  C   UNL     1     172.842 108.903 217.820  1.00  0.00     0.016 A 
ATOM     24  C   UNL     1     171.477 108.635 215.834  1.00  0.00     0.062 A 
BRANCH  20  25
ATOM     25  O   UNL     1     174.987 107.747 215.056  1.00  0.00    -0.493 OA
ATOM     26  C   UNL     1     175.720 106.719 215.747  1.00  0.00     0.278 C 
ENDBRANCH  20  25
BRANCH  22  27
ATOM     27  O   UNL     1     172.591 107.672 213.780  1.00  0.00    -0.493 OA
ATOM     28  C   UNL     1     172.059 106.250 213.779  1.00  0.00     0.278 C 
ENDBRANCH  22  27
ENDBRANCH  10  19
ENDBRANCH   7   9
ENDBRANCH   1   7
BRANCH   3  29
ATOM     29  C   UNL     1     173.607 112.738 223.152  1.00  0.00     0.012 C 
ATOM     30  C   UNL     1     174.350 113.866 223.129  1.00  0.00     0.053 C 
BRANCH  30  31
ATOM     31  C   UNL     1     175.740 113.894 223.350  1.00  0.00     0.185 C 
ATOM     32  O   UNL     1     176.497 113.385 222.487  1.00  0.00    -0.289 OA
BRANCH  31  33
ATOM     33  C   UNL     1     176.385 114.482 224.485  1.00  0.00     0.026 A 
ATOM     34  C   UNL     1     177.787 114.672 224.549  1.00  0.00     0.062 A 
ATOM     35  C   UNL     1     175.617 114.949 225.585  1.00  0.00     0.016 A 
ATOM     36  C   UNL     1     178.395 115.341 225.635  1.00  0.00     0.161 A 
ATOM     37  C   UNL     1     176.217 115.591 226.683  1.00  0.00     0.051 A 
ATOM     38  C   UNL     1     177.611 115.801 226.714  1.00  0.00     0.160 A 
BRANCH  36  39
ATOM     39  O   UNL     1     179.753 115.525 225.664  1.00  0.00    -0.493 OA
ATOM     40  C   UNL     1     180.492 114.296 225.567  1.00  0.00     0.278 C 
ENDBRANCH  36  39
BRANCH  38  41
ATOM     41  O   UNL     1     178.232 116.385 227.794  1.00  0.00    -0.493 OA
ATOM     42  C   UNL     1     178.051 115.711 229.056  1.00  0.00     0.278 C 
ENDBRANCH  38  41
ENDBRANCH  31  33
ENDBRANCH  30  31
ENDBRANCH   3  29
TORSDOF 10
ENDMDL
MODEL 17
REMARK VINA RESULT:    -7.267      3.865     13.389
REMARK INTER + INTRA:         -12.869
REMARK INTER:                 -11.523
REMARK INTRA:                  -1.346
REMARK UNBOUND:                -1.354
REMARK SMILES COc1ccc(C(=O)/C=C/c2cccc(Nc3nc(-c4ccc(OC)c(OC)c4)nc4ccccc34)c2)cc1OC
REMARK SMILES IDX 15 1 37 2 11 3 12 4 13 5 14 6 16 7 17 9 19 10 30 11 18 12
REMARK SMILES IDX 31 13 36 14 32 15 35 16 33 17 34 18 20 19 23 20 22 21 26 22
REMARK SMILES IDX 21 23 29 24 24 25 25 26 27 27 28 28 10 29 9 30 7 31 8 32
REMARK SMILES IDX 6 33 38 34 5 35 39 36 4 37 3 38 40 39 41 40 2 41 1 42
REMARK H PARENT 16 8
REMARK Flexibility Score: inf
ROOT
ATOM      1  C   UNL     1     170.899 116.100 225.945  1.00  0.00     0.040 A 
ATOM      2  C   UNL     1     171.360 114.997 225.172  1.00  0.00     0.034 A 
ATOM      3  C   UNL     1     170.532 113.867 224.909  1.00  0.00    -0.023 A 
ATOM      4  C   UNL     1     169.207 113.896 225.422  1.00  0.00     0.008 A 
ATOM      5  C   UNL     1     168.743 114.969 226.197  1.00  0.00     0.003 A 
ATOM      6  C   UNL     1     169.588 116.052 226.465  1.00  0.00     0.026 A 
ENDROOT
BRANCH   1   7
ATOM      7  N   UNL     1     171.563 117.265 226.240  1.00  0.00    -0.340 N 
ATOM      8  H   UNL     1     172.055 117.665 225.454  1.00  0.00     0.168 HD
BRANCH   7   9
ATOM      9  C   UNL     1     171.694 117.999 227.383  1.00  0.00     0.142 A 
ATOM     10  C   UNL     1     170.773 119.528 228.978  1.00  0.00     0.162 A 
ATOM     11  N   UNL     1     171.917 119.473 229.701  1.00  0.00    -0.228 NA
ATOM     12  N   UNL     1     170.692 118.794 227.838  1.00  0.00    -0.210 NA
ATOM     13  C   UNL     1     172.982 118.734 229.312  1.00  0.00     0.076 A 
ATOM     14  C   UNL     1     172.911 117.955 228.124  1.00  0.00     0.043 A 
ATOM     15  C   UNL     1     174.151 118.761 230.097  1.00  0.00     0.029 A 
ATOM     16  C   UNL     1     174.050 117.193 227.760  1.00  0.00     0.014 A 
ATOM     17  C   UNL     1     175.268 118.003 229.711  1.00  0.00     0.002 A 
ATOM     18  C   UNL     1     175.219 117.223 228.544  1.00  0.00     0.001 A 
BRANCH  10  19
ATOM     19  C   UNL     1     169.717 120.367 229.389  1.00  0.00     0.023 A 
ATOM     20  C   UNL     1     167.524 122.012 230.135  1.00  0.00     0.160 A 
ATOM     21  C   UNL     1     168.539 122.515 229.297  1.00  0.00     0.051 A 
ATOM     22  C   UNL     1     167.565 120.675 230.588  1.00  0.00     0.161 A 
ATOM     23  C   UNL     1     169.616 121.695 228.918  1.00  0.00     0.016 A 
ATOM     24  C   UNL     1     168.706 119.879 230.242  1.00  0.00     0.062 A 
BRANCH  20  25
ATOM     25  O   UNL     1     166.478 122.826 230.482  1.00  0.00    -0.493 OA
ATOM     26  C   UNL     1     166.790 123.687 231.593  1.00  0.00     0.278 C 
ENDBRANCH  20  25
BRANCH  22  27
ATOM     27  O   UNL     1     166.448 120.242 231.316  1.00  0.00    -0.493 OA
ATOM     28  C   UNL     1     165.542 119.425 230.412  1.00  0.00     0.278 C 
ENDBRANCH  22  27
ENDBRANCH  10  19
ENDBRANCH   7   9
ENDBRANCH   1   7
BRANCH   3  29
ATOM     29  C   UNL     1     170.920 112.741 224.154  1.00  0.00     0.012 C 
ATOM     30  C   UNL     1     170.228 111.605 223.916  1.00  0.00     0.053 C 
BRANCH  30  31
ATOM     31  C   UNL     1     170.738 110.514 223.187  1.00  0.00     0.185 C 
ATOM     32  O   UNL     1     171.509 109.710 223.768  1.00  0.00    -0.289 OA
BRANCH  31  33
ATOM     33  C   UNL     1     170.435 110.220 221.819  1.00  0.00     0.026 A 
ATOM     34  C   UNL     1     170.575 111.180 220.787  1.00  0.00     0.062 A 
ATOM     35  C   UNL     1     170.024 108.915 221.440  1.00  0.00     0.016 A 
ATOM     36  C   UNL     1     170.365 110.843 219.430  1.00  0.00     0.161 A 
ATOM     37  C   UNL     1     169.784 108.579 220.095  1.00  0.00     0.051 A 
ATOM     38  C   UNL     1     169.961 109.538 219.076  1.00  0.00     0.160 A 
BRANCH  36  39
ATOM     39  O   UNL     1     170.522 111.788 218.449  1.00  0.00    -0.493 OA
ATOM     40  C   UNL     1     169.439 112.731 218.393  1.00  0.00     0.278 C 
ENDBRANCH  36  39
BRANCH  38  41
ATOM     41  O   UNL     1     169.691 109.254 217.758  1.00  0.00    -0.493 OA
ATOM     42  C   UNL     1     170.779 108.676 217.009  1.00  0.00     0.278 C 
ENDBRANCH  38  41
ENDBRANCH  31  33
ENDBRANCH  30  31
ENDBRANCH   3  29
TORSDOF 10
ENDMDL
MODEL 18
REMARK VINA RESULT:    -7.166      9.343     12.906
REMARK INTER + INTRA:         -12.710
REMARK INTER:                 -11.190
REMARK INTRA:                  -1.520
REMARK UNBOUND:                -1.354
REMARK SMILES COc1ccc(C(=O)/C=C/c2cccc(Nc3nc(-c4ccc(OC)c(OC)c4)nc4ccccc34)c2)cc1OC
REMARK SMILES IDX 15 1 37 2 11 3 12 4 13 5 14 6 16 7 17 9 19 10 30 11 18 12
REMARK SMILES IDX 31 13 36 14 32 15 35 16 33 17 34 18 20 19 23 20 22 21 26 22
REMARK SMILES IDX 21 23 29 24 24 25 25 26 27 27 28 28 10 29 9 30 7 31 8 32
REMARK SMILES IDX 6 33 38 34 5 35 39 36 4 37 3 38 40 39 41 40 2 41 1 42
REMARK H PARENT 16 8
REMARK Flexibility Score: inf
ROOT
ATOM      1  C   UNL     1     179.986 114.457 226.338  1.00  0.00     0.040 A 
ATOM      2  C   UNL     1     179.085 114.274 225.251  1.00  0.00     0.034 A 
ATOM      3  C   UNL     1     177.882 115.029 225.138  1.00  0.00    -0.023 A 
ATOM      4  C   UNL     1     177.627 116.004 226.141  1.00  0.00     0.008 A 
ATOM      5  C   UNL     1     178.497 116.187 227.225  1.00  0.00     0.003 A 
ATOM      6  C   UNL     1     179.657 115.409 227.327  1.00  0.00     0.026 A 
ENDROOT
BRANCH   1   7
ATOM      7  N   UNL     1     181.192 113.838 226.554  1.00  0.00    -0.340 N 
ATOM      8  H   UNL     1     181.170 113.144 227.287  1.00  0.00     0.168 HD
BRANCH   7   9
ATOM      9  C   UNL     1     182.423 113.968 225.977  1.00  0.00     0.142 A 
ATOM     10  C   UNL     1     183.852 113.721 224.074  1.00  0.00     0.162 A 
ATOM     11  N   UNL     1     184.887 114.242 224.775  1.00  0.00    -0.228 NA
ATOM     12  N   UNL     1     182.650 113.594 224.692  1.00  0.00    -0.210 NA
ATOM     13  C   UNL     1     184.766 114.615 226.070  1.00  0.00     0.076 A 
ATOM     14  C   UNL     1     183.512 114.495 226.730  1.00  0.00     0.043 A 
ATOM     15  C   UNL     1     185.899 115.110 226.743  1.00  0.00     0.029 A 
ATOM     16  C   UNL     1     183.433 114.904 228.086  1.00  0.00     0.014 A 
ATOM     17  C   UNL     1     185.796 115.502 228.088  1.00  0.00     0.002 A 
ATOM     18  C   UNL     1     184.567 115.397 228.759  1.00  0.00     0.001 A 
BRANCH  10  19
ATOM     19  C   UNL     1     184.047 113.283 222.748  1.00  0.00     0.023 A 
ATOM     20  C   UNL     1     184.376 112.488 220.040  1.00  0.00     0.160 A 
ATOM     21  C   UNL     1     183.402 111.872 220.850  1.00  0.00     0.051 A 
ATOM     22  C   UNL     1     185.179 113.532 220.552  1.00  0.00     0.161 A 
ATOM     23  C   UNL     1     183.231 112.276 222.185  1.00  0.00     0.016 A 
ATOM     24  C   UNL     1     185.032 113.881 221.934  1.00  0.00     0.062 A 
BRANCH  20  25
ATOM     25  O   UNL     1     184.516 112.086 218.737  1.00  0.00    -0.493 OA
ATOM     26  C   UNL     1     183.515 111.130 218.342  1.00  0.00     0.278 C 
ENDBRANCH  20  25
BRANCH  22  27
ATOM     27  O   UNL     1     186.031 114.156 219.630  1.00  0.00    -0.493 OA
ATOM     28  C   UNL     1     186.589 115.429 220.239  1.00  0.00     0.278 C 
ENDBRANCH  22  27
ENDBRANCH  10  19
ENDBRANCH   7   9
ENDBRANCH   1   7
BRANCH   3  29
ATOM     29  C   UNL     1     176.945 114.902 224.092  1.00  0.00     0.012 C 
ATOM     30  C   UNL     1     176.094 113.883 223.840  1.00  0.00     0.053 C 
BRANCH  30  31
ATOM     31  C   UNL     1     175.232 113.837 222.728  1.00  0.00     0.185 C 
ATOM     32  O   UNL     1     175.687 114.158 221.601  1.00  0.00    -0.289 OA
BRANCH  31  33
ATOM     33  C   UNL     1     173.860 113.430 222.761  1.00  0.00     0.026 A 
ATOM     34  C   UNL     1     173.415 112.213 222.188  1.00  0.00     0.062 A 
ATOM     35  C   UNL     1     172.891 114.226 223.426  1.00  0.00     0.016 A 
ATOM     36  C   UNL     1     172.075 111.782 222.315  1.00  0.00     0.161 A 
ATOM     37  C   UNL     1     171.549 113.819 223.532  1.00  0.00     0.051 A 
ATOM     38  C   UNL     1     171.130 112.588 222.986  1.00  0.00     0.160 A 
BRANCH  36  39
ATOM     39  O   UNL     1     171.674 110.593 221.764  1.00  0.00    -0.493 OA
ATOM     40  C   UNL     1     171.567 110.641 220.331  1.00  0.00     0.278 C 
ENDBRANCH  36  39
BRANCH  38  41
ATOM     41  O   UNL     1     169.816 112.184 223.033  1.00  0.00    -0.493 OA
ATOM     42  C   UNL     1     168.838 113.242 223.048  1.00  0.00     0.278 C 
ENDBRANCH  38  41
ENDBRANCH  31  33
ENDBRANCH  30  31
ENDBRANCH   3  29
TORSDOF 10
ENDMDL
MODEL 19
REMARK VINA RESULT:    -7.124      2.993      5.393
REMARK INTER + INTRA:         -12.642
REMARK INTER:                 -11.041
REMARK INTRA:                  -1.601
REMARK UNBOUND:                -1.354
REMARK SMILES COc1ccc(C(=O)/C=C/c2cccc(Nc3nc(-c4ccc(OC)c(OC)c4)nc4ccccc34)c2)cc1OC
REMARK SMILES IDX 15 1 37 2 11 3 12 4 13 5 14 6 16 7 17 9 19 10 30 11 18 12
REMARK SMILES IDX 31 13 36 14 32 15 35 16 33 17 34 18 20 19 23 20 22 21 26 22
REMARK SMILES IDX 21 23 29 24 24 25 25 26 27 27 28 28 10 29 9 30 7 31 8 32
REMARK SMILES IDX 6 33 38 34 5 35 39 36 4 37 3 38 40 39 41 40 2 41 1 42
REMARK H PARENT 16 8
REMARK Flexibility Score: inf
ROOT
ATOM      1  C   UNL     1     172.470 114.168 226.042  1.00  0.00     0.040 A 
ATOM      2  C   UNL     1     171.976 115.481 225.800  1.00  0.00     0.034 A 
ATOM      3  C   UNL     1     170.949 116.057 226.602  1.00  0.00    -0.023 A 
ATOM      4  C   UNL     1     170.453 115.279 227.684  1.00  0.00     0.008 A 
ATOM      5  C   UNL     1     170.919 113.979 227.927  1.00  0.00     0.003 A 
ATOM      6  C   UNL     1     171.908 113.427 227.104  1.00  0.00     0.026 A 
ENDROOT
BRANCH   1   7
ATOM      7  N   UNL     1     173.478 113.506 225.386  1.00  0.00    -0.340 N 
ATOM      8  H   UNL     1     174.402 113.850 225.605  1.00  0.00     0.168 HD
BRANCH   7   9
ATOM      9  C   UNL     1     173.488 112.472 224.495  1.00  0.00     0.142 A 
ATOM     10  C   UNL     1     172.555 111.383 222.579  1.00  0.00     0.162 A 
ATOM     11  N   UNL     1     173.496 110.413 222.664  1.00  0.00    -0.228 NA
ATOM     12  N   UNL     1     172.572 112.383 223.496  1.00  0.00    -0.210 NA
ATOM     13  C   UNL     1     174.431 110.398 223.642  1.00  0.00     0.076 A 
ATOM     14  C   UNL     1     174.467 111.443 224.607  1.00  0.00     0.043 A 
ATOM     15  C   UNL     1     175.351 109.333 223.687  1.00  0.00     0.029 A 
ATOM     16  C   UNL     1     175.468 111.388 225.609  1.00  0.00     0.014 A 
ATOM     17  C   UNL     1     176.329 109.298 224.694  1.00  0.00     0.002 A 
ATOM     18  C   UNL     1     176.386 110.321 225.655  1.00  0.00     0.001 A 
BRANCH  10  19
ATOM     19  C   UNL     1     171.559 111.315 221.583  1.00  0.00     0.023 A 
ATOM     20  C   UNL     1     169.523 111.077 219.616  1.00  0.00     0.160 A 
ATOM     21  C   UNL     1     170.860 110.763 219.299  1.00  0.00     0.051 A 
ATOM     22  C   UNL     1     169.171 111.480 220.923  1.00  0.00     0.161 A 
ATOM     23  C   UNL     1     171.863 110.869 220.277  1.00  0.00     0.016 A 
ATOM     24  C   UNL     1     170.221 111.643 221.885  1.00  0.00     0.062 A 
BRANCH  20  25
ATOM     25  O   UNL     1     168.559 110.955 218.649  1.00  0.00    -0.493 OA
ATOM     26  C   UNL     1     168.503 109.631 218.087  1.00  0.00     0.278 C 
ENDBRANCH  20  25
BRANCH  22  27
ATOM     27  O   UNL     1     167.800 111.651 221.162  1.00  0.00    -0.493 OA
ATOM     28  C   UNL     1     167.548 113.056 221.675  1.00  0.00     0.278 C 
ENDBRANCH  22  27
ENDBRANCH  10  19
ENDBRANCH   7   9
ENDBRANCH   1   7
BRANCH   3  29
ATOM     29  C   UNL     1     170.411 117.349 226.421  1.00  0.00     0.012 C 
ATOM     30  C   UNL     1     169.259 117.859 226.908  1.00  0.00     0.053 C 
BRANCH  30  31
ATOM     31  C   UNL     1     168.791 119.155 226.617  1.00  0.00     0.185 C 
ATOM     32  O   UNL     1     168.548 119.452 225.421  1.00  0.00    -0.289 OA
BRANCH  31  33
ATOM     33  C   UNL     1     168.542 120.180 227.585  1.00  0.00     0.026 A 
ATOM     34  C   UNL     1     167.257 120.408 228.137  1.00  0.00     0.062 A 
ATOM     35  C   UNL     1     169.607 120.986 228.067  1.00  0.00     0.016 A 
ATOM     36  C   UNL     1     167.050 121.360 229.161  1.00  0.00     0.161 A 
ATOM     37  C   UNL     1     169.404 121.955 229.066  1.00  0.00     0.051 A 
ATOM     38  C   UNL     1     168.126 122.145 229.629  1.00  0.00     0.160 A 
BRANCH  36  39
ATOM     39  O   UNL     1     165.799 121.549 229.689  1.00  0.00    -0.493 OA
ATOM     40  C   UNL     1     165.219 120.343 230.213  1.00  0.00     0.278 C 
ENDBRANCH  36  39
BRANCH  38  41
ATOM     41  O   UNL     1     167.886 123.116 230.573  1.00  0.00    -0.493 OA
ATOM     42  C   UNL     1     168.282 122.787 231.920  1.00  0.00     0.278 C 
ENDBRANCH  38  41
ENDBRANCH  31  33
ENDBRANCH  30  31
ENDBRANCH   3  29
TORSDOF 10
ENDMDL
MODEL 20
REMARK VINA RESULT:    -6.997      6.296      9.366
REMARK INTER + INTRA:         -12.441
REMARK INTER:                 -10.749
REMARK INTRA:                  -1.693
REMARK UNBOUND:                -1.354
REMARK SMILES COc1ccc(C(=O)/C=C/c2cccc(Nc3nc(-c4ccc(OC)c(OC)c4)nc4ccccc34)c2)cc1OC
REMARK SMILES IDX 15 1 37 2 11 3 12 4 13 5 14 6 16 7 17 9 19 10 30 11 18 12
REMARK SMILES IDX 31 13 36 14 32 15 35 16 33 17 34 18 20 19 23 20 22 21 26 22
REMARK SMILES IDX 21 23 29 24 24 25 25 26 27 27 28 28 10 29 9 30 7 31 8 32
REMARK SMILES IDX 6 33 38 34 5 35 39 36 4 37 3 38 40 39 41 40 2 41 1 42
REMARK H PARENT 16 8
REMARK Flexibility Score: inf
ROOT
ATOM      1  C   UNL     1     175.057 110.265 224.141  1.00  0.00     0.040 A 
ATOM      2  C   UNL     1     175.732 111.402 224.668  1.00  0.00     0.034 A 
ATOM      3  C   UNL     1     177.154 111.470 224.727  1.00  0.00    -0.023 A 
ATOM      4  C   UNL     1     177.882 110.367 224.205  1.00  0.00     0.008 A 
ATOM      5  C   UNL     1     177.232 109.234 223.695  1.00  0.00     0.003 A 
ATOM      6  C   UNL     1     175.833 109.181 223.678  1.00  0.00     0.026 A 
ENDROOT
BRANCH   1   7
ATOM      7  N   UNL     1     173.706 110.079 223.981  1.00  0.00    -0.340 N 
ATOM      8  H   UNL     1     173.314 109.383 224.600  1.00  0.00     0.168 HD
BRANCH   7   9
ATOM      9  C   UNL     1     172.778 110.644 223.154  1.00  0.00     0.142 A 
ATOM     10  C   UNL     1     171.700 110.750 221.021  1.00  0.00     0.162 A 
ATOM     11  N   UNL     1     170.897 111.745 221.468  1.00  0.00    -0.228 NA
ATOM     12  N   UNL     1     172.620 110.228 221.871  1.00  0.00    -0.210 NA
ATOM     13  C   UNL     1     171.001 112.247 222.720  1.00  0.00     0.076 A 
ATOM     14  C   UNL     1     171.956 111.707 223.627  1.00  0.00     0.043 A 
ATOM     15  C   UNL     1     170.158 113.310 223.098  1.00  0.00     0.029 A 
ATOM     16  C   UNL     1     172.023 112.262 224.930  1.00  0.00     0.014 A 
ATOM     17  C   UNL     1     170.250 113.847 224.392  1.00  0.00     0.002 A 
ATOM     18  C   UNL     1     171.181 113.327 225.305  1.00  0.00     0.001 A 
BRANCH  10  19
ATOM     19  C   UNL     1     171.600 110.309 219.685  1.00  0.00     0.023 A 
ATOM     20  C   UNL     1     171.303 109.363 217.022  1.00  0.00     0.160 A 
ATOM     21  C   UNL     1     172.185 108.720 217.913  1.00  0.00     0.051 A 
ATOM     22  C   UNL     1     170.528 110.464 217.450  1.00  0.00     0.161 A 
ATOM     23  C   UNL     1     172.320 109.181 219.234  1.00  0.00     0.016 A 
ATOM     24  C   UNL     1     170.732 110.957 218.781  1.00  0.00     0.062 A 
BRANCH  20  25
ATOM     25  O   UNL     1     171.178 108.888 215.743  1.00  0.00    -0.493 OA
ATOM     26  C   UNL     1     172.162 107.886 215.426  1.00  0.00     0.278 C 
ENDBRANCH  20  25
BRANCH  22  27
ATOM     27  O   UNL     1     169.596 110.952 216.524  1.00  0.00    -0.493 OA
ATOM     28  C   UNL     1     168.205 110.489 216.915  1.00  0.00     0.278 C 
ENDBRANCH  22  27
ENDBRANCH  10  19
ENDBRANCH   7   9
ENDBRANCH   1   7
BRANCH   3  29
ATOM     29  C   UNL     1     177.889 112.562 225.236  1.00  0.00     0.012 C 
ATOM     30  C   UNL     1     177.968 113.823 224.757  1.00  0.00     0.053 C 
BRANCH  30  31
ATOM     31  C   UNL     1     178.781 114.825 225.318  1.00  0.00     0.185 C 
ATOM     32  O   UNL     1     178.249 115.910 225.662  1.00  0.00    -0.289 OA
BRANCH  31  33
ATOM     33  C   UNL     1     180.189 114.711 225.557  1.00  0.00     0.026 A 
ATOM     34  C   UNL     1     181.116 114.447 224.519  1.00  0.00     0.062 A 
ATOM     35  C   UNL     1     180.714 114.911 226.860  1.00  0.00     0.016 A 
ATOM     36  C   UNL     1     182.509 114.434 224.758  1.00  0.00     0.161 A 
ATOM     37  C   UNL     1     182.097 114.871 227.112  1.00  0.00     0.051 A 
ATOM     38  C   UNL     1     183.009 114.641 226.061  1.00  0.00     0.160 A 
BRANCH  36  39
ATOM     39  O   UNL     1     183.386 114.191 223.732  1.00  0.00    -0.493 OA
ATOM     40  C   UNL     1     182.853 114.530 222.441  1.00  0.00     0.278 C 
ENDBRANCH  36  39
BRANCH  38  41
ATOM     41  O   UNL     1     184.363 114.551 226.283  1.00  0.00    -0.493 OA
ATOM     42  C   UNL     1     184.806 114.933 227.601  1.00  0.00     0.278 C 
ENDBRANCH  38  41
ENDBRANCH  31  33
ENDBRANCH  30  31
ENDBRANCH   3  29
TORSDOF 10
ENDMDL
