REMARK SMILES COc1ccc(-c2nc(Nc3cccc(/C=C/C(=O)c4ccccc4)c3)c3ccccc3n2)cc1
REMARK SMILES IDX 11 1 26 2 15 3 14 4 13 5 12 6 10 7 9 9 7 10 33 11 8 12 32 13
REMARK SMILES IDX 27 14 31 15 28 16 30 17 29 18 6 19 3 20 4 21 35 22 5 23
REMARK SMILES IDX 34 24 2 25 1 26 16 27 17 28 18 29 19 30 20 31 21 32 25 33
REMARK SMILES IDX 22 34 24 35 23 36
REMARK H PARENT 10 8
REMARK Flexibility Score: inf
ROOT
ATOM      1  C   UNL     1       0.147   6.056   5.452  1.00  0.00     0.040 A 
ATOM      2  C   UNL     1       0.687   5.692   4.189  1.00  0.00     0.034 A 
ATOM      3  C   UNL     1       2.063   5.871   3.879  1.00  0.00    -0.023 A 
ATOM      4  C   UNL     1       2.867   6.530   4.843  1.00  0.00     0.008 A 
ATOM      5  C   UNL     1       2.336   6.947   6.074  1.00  0.00     0.003 A 
ATOM      6  C   UNL     1       0.988   6.707   6.378  1.00  0.00     0.026 A 
ENDROOT
BRANCH   1   7
ATOM      7  N   UNL     1      -1.141   5.830   5.873  1.00  0.00    -0.340 N 
ATOM      8  H   UNL     1      -1.536   6.532   6.482  1.00  0.00     0.168 HD
BRANCH   7   9
ATOM      9  C   UNL     1      -1.964   4.776   5.574  1.00  0.00     0.142 A 
ATOM     10  C   UNL     1      -2.250   2.700   4.421  1.00  0.00     0.162 A 
ATOM     11  N   UNL     1      -3.460   2.519   5.001  1.00  0.00    -0.228 NA
ATOM     12  N   UNL     1      -1.534   3.805   4.727  1.00  0.00    -0.210 NA
ATOM     13  C   UNL     1      -3.980   3.439   5.851  1.00  0.00     0.076 A 
ATOM     14  C   UNL     1      -3.251   4.626   6.162  1.00  0.00     0.043 A 
ATOM     15  C   UNL     1      -5.249   3.206   6.416  1.00  0.00     0.029 A 
ATOM     16  C   UNL     1      -3.845   5.573   7.032  1.00  0.00     0.014 A 
ATOM     17  C   UNL     1      -5.819   4.156   7.279  1.00  0.00     0.002 A 
ATOM     18  C   UNL     1      -5.119   5.338   7.585  1.00  0.00     0.001 A 
BRANCH  10  19
ATOM     19  C   UNL     1      -1.728   1.779   3.503  1.00  0.00     0.020 A 
ATOM     20  C   UNL     1      -0.643  -0.050   1.644  1.00  0.00     0.118 A 
ATOM     21  C   UNL     1      -0.783  -0.415   2.998  1.00  0.00     0.047 A 
ATOM     22  C   UNL     1      -1.069   1.223   1.216  1.00  0.00     0.047 A 
ATOM     23  C   UNL     1      -1.321   0.495   3.925  1.00  0.00     0.016 A 
ATOM     24  C   UNL     1      -1.596   2.139   2.144  1.00  0.00     0.016 A 
BRANCH  20  25
ATOM     25  O   UNL     1      -0.106  -0.933   0.750  1.00  0.00    -0.497 OA
ATOM     26  C   UNL     1       1.321  -0.799   0.637  1.00  0.00     0.278 C 
ENDBRANCH  20  25
ENDBRANCH  10  19
ENDBRANCH   7   9
ENDBRANCH   1   7
BRANCH   3  27
ATOM     27  C   UNL     1       2.676   5.434   2.693  1.00  0.00     0.012 C 
ATOM     28  C   UNL     1       2.216   4.485   1.855  1.00  0.00     0.053 C 
BRANCH  28  29
ATOM     29  C   UNL     1       2.873   4.064   0.700  1.00  0.00     0.185 C 
ATOM     30  O   UNL     1       4.125   4.148   0.642  1.00  0.00    -0.289 OA
BRANCH  29  31
ATOM     31  C   UNL     1       2.174   3.511  -0.414  1.00  0.00     0.022 A 
ATOM     32  C   UNL     1       2.773   2.523  -1.236  1.00  0.00     0.012 A 
ATOM     33  C   UNL     1       0.861   3.940  -0.742  1.00  0.00     0.012 A 
ATOM     34  C   UNL     1       2.068   1.951  -2.311  1.00  0.00     0.001 A 
ATOM     35  C   UNL     1       0.161   3.380  -1.825  1.00  0.00     0.001 A 
ATOM     36  C   UNL     1       0.759   2.371  -2.600  1.00  0.00     0.000 A 
ENDBRANCH  29  31
ENDBRANCH  28  29
ENDBRANCH   3  27
TORSDOF 7
