@<TRIPOS>MOLECULE

58 62 1
SMALL
USER_CHARGES
@<TRIPOS>ATOM
1	C1     1.3215    -0.7987     0.6368	C.3	1	LIG	0.0423
2	O1    -0.1060    -0.9330     0.7496	O.3	1	LIG	-0.2755
3	C2    -0.6429    -0.0497     1.6444	C.2	1	LIG	0.0168
4	C3    -0.7833    -0.4147     2.9980	C.2	1	LIG	-0.0180
5	C4    -1.3206     0.4949     3.9254	C.2	1	LIG	-0.0102
6	C5    -1.7278     1.7788     3.5035	C.2	1	LIG	-0.0307
7	C6    -1.5959     2.1390     2.1436	C.2	1	LIG	-0.0102
8	C7    -1.0693     1.2233     1.2159	C.2	1	LIG	-0.0180
9	C8    -2.2497     2.6997     4.4213	C.2	1	LIG	0.0662
10	N1    -3.4598     2.5189     5.0007	N.2	1	LIG	-0.2468
11	C9    -3.9799     3.4395     5.8514	C.2	1	LIG	0.0512
12	C10    -3.2511     4.6262     6.1620	C.2	1	LIG	-0.0244
13	C11    -3.8447     5.5730     7.0322	C.2	1	LIG	-0.0227
14	C12    -5.1192     5.3376     7.5847	C.2	1	LIG	-0.0518
15	C13    -5.8192     4.1564     7.2792	C.2	1	LIG	-0.0354
16	C14    -5.2494     3.2058     6.4160	C.2	1	LIG	-0.0078
17	C15    -1.9642     4.7758     5.5742	C.2	1	LIG	0.0445
18	N2    -1.1412     5.8304     5.8728	N.3	1	LIG	0.0057
19	C16     0.1473     6.0565     5.4524	C.2	1	LIG	-0.0283
20	C17     0.6866     5.6918     4.1895	C.2	1	LIG	-0.0467
21	C18     2.0635     5.8711     3.8791	C.2	1	LIG	-0.0457
22	C19     2.6765     5.4340     2.6928	C.2	1	LIG	-0.0220
23	C20     2.2156     4.4849     1.8551	C.2	1	LIG	0.0272
24	C21     2.8725     4.0640     0.6996	C.2	1	LIG	0.0636
25	O2     4.1249     4.1479     0.6424	O.2	1	LIG	-0.3002
26	C22     2.1737     3.5107    -0.4142	C.2	1	LIG	-0.0173
27	C23     2.7730     2.5226    -1.2356	C.2	1	LIG	-0.0203
28	C24     2.0679     1.9512    -2.3108	C.2	1	LIG	-0.0482
29	C25     0.7588     2.3708    -2.6003	C.2	1	LIG	-0.0434
30	C26     0.1612     3.3796    -1.8253	C.2	1	LIG	-0.0482
31	C27     0.8614     3.9399    -0.7421	C.2	1	LIG	-0.0203
32	C28     2.8670     6.5298     4.8426	C.2	1	LIG	-0.0715
33	C29     2.3362     6.9472     6.0744	C.2	1	LIG	-0.0597
34	C30     0.9879     6.7066     6.3778	C.2	1	LIG	-0.0574
35	N3    -1.5345     3.8051     4.7269	N.2	1	LIG	-0.2363
36	H1     1.7624    -0.7573     1.6329	H	1	LIG	0.0535
37	H2     1.7254    -1.6547     0.0961	H	1	LIG	0.0535
38	H3     1.5587     0.1175     0.0961	H	1	LIG	0.0535
39	H4    -0.4745    -1.4061     3.3296	H	1	LIG	0.0650
40	H5    -1.4216     0.2047     4.9713	H	1	LIG	0.0631
41	H6    -1.9023     3.1298     1.8081	H	1	LIG	0.0631
42	H7    -0.9916     1.5002     0.1645	H	1	LIG	0.0650
43	H8    -3.3149     6.4929     7.2794	H	1	LIG	0.0630
44	H9    -5.5663     6.0739     8.2526	H	1	LIG	0.0622
45	H10    -6.8036     3.9777     7.7117	H	1	LIG	0.0623
46	H11    -5.7912     2.2888     6.1847	H	1	LIG	0.0645
47	H12    -1.5358     6.5325     6.4823	H	1	LIG	0.1357
48	H13     0.0250     5.2622     3.4372	H	1	LIG	0.0645
49	H14     3.6206     5.8842     2.3862	H	1	LIG	0.0630
50	H15     1.2611     4.0340     2.1265	H	1	LIG	0.0663
51	H16     3.7939     2.1963    -1.0369	H	1	LIG	0.0630
52	H17     2.5377     1.1805    -2.9219	H	1	LIG	0.0622
53	H18     0.2085     1.9151    -3.4234	H	1	LIG	0.0622
54	H19    -0.8440     3.7269    -2.0641	H	1	LIG	0.0622
55	H20     0.3804     4.7175    -0.1487	H	1	LIG	0.0630
56	H21     3.9193     6.7200     4.6311	H	1	LIG	0.0628
57	H22     2.9722     7.4590     6.7966	H	1	LIG	0.0623
58	H23     0.5902     7.0275     7.3406	H	1	LIG	0.0639
@<TRIPOS>BOND
1	1	2	1
2	2	3	1
3	3	4	2
4	4	5	1
5	5	6	2
6	6	7	1
7	7	8	2
8	3	8	1
9	6	9	1
10	9	10	2
11	10	11	1
12	11	12	2
13	12	13	1
14	13	14	2
15	14	15	1
16	15	16	2
17	11	16	1
18	12	17	1
19	17	18	1
20	18	19	1
21	19	20	2
22	20	21	1
23	21	22	1
24	22	23	2
25	23	24	1
26	24	25	2
27	24	26	1
28	26	27	2
29	27	28	1
30	28	29	2
31	29	30	1
32	30	31	2
33	26	31	1
34	21	32	2
35	32	33	1
36	33	34	2
37	19	34	1
38	17	35	2
39	9	35	1
40	1	36	1
41	1	37	1
42	1	38	1
43	4	39	1
44	5	40	1
45	7	41	1
46	8	42	1
47	13	43	1
48	14	44	1
49	15	45	1
50	16	46	1
51	18	47	1
52	20	48	1
53	22	49	1
54	23	50	1
55	27	51	1
56	28	52	1
57	29	53	1
58	30	54	1
59	31	55	1
60	32	56	1
61	33	57	1
62	34	58	1
@<TRIPOS>SUBSTRUCTURE
1	LIG	1
