MODEL 1
REMARK VINA RESULT:    -8.804      0.000      0.000
REMARK INTER + INTRA:         -13.485
REMARK INTER:                 -12.407
REMARK INTRA:                  -1.078
REMARK UNBOUND:                -1.078
REMARK SMILES COc1ccc(-c2nc(Nc3cccc(/C=C/C(=O)c4ccccc4)c3)c3ccccc3n2)cc1
REMARK SMILES IDX 11 1 26 2 15 3 14 4 13 5 12 6 10 7 9 9 7 10 33 11 8 12 32 13
REMARK SMILES IDX 27 14 31 15 28 16 30 17 29 18 6 19 3 20 4 21 35 22 5 23
REMARK SMILES IDX 34 24 2 25 1 26 16 27 17 28 18 29 19 30 20 31 21 32 25 33
REMARK SMILES IDX 22 34 24 35 23 36
REMARK H PARENT 10 8
REMARK Flexibility Score: inf
ROOT
ATOM      1  C   UNL     1     170.864 113.130 222.758  1.00  0.00     0.040 A 
ATOM      2  C   UNL     1     170.093 113.722 223.795  1.00  0.00     0.034 A 
ATOM      3  C   UNL     1     170.496 113.669 225.157  1.00  0.00    -0.023 A 
ATOM      4  C   UNL     1     171.650 112.905 225.464  1.00  0.00     0.008 A 
ATOM      5  C   UNL     1     172.392 112.266 224.458  1.00  0.00     0.003 A 
ATOM      6  C   UNL     1     172.005 112.382 223.115  1.00  0.00     0.026 A 
ENDROOT
BRANCH   1   7
ATOM      7  N   UNL     1     170.605 113.216 221.412  1.00  0.00    -0.340 N 
ATOM      8  H   UNL     1     170.951 114.044 220.948  1.00  0.00     0.168 HD
BRANCH   7   9
ATOM      9  C   UNL     1     169.940 112.325 220.612  1.00  0.00     0.142 A 
ATOM     10  C   UNL     1     170.058 110.717 218.845  1.00  0.00     0.162 A 
ATOM     11  N   UNL     1     168.757 110.389 219.025  1.00  0.00    -0.228 NA
ATOM     12  N   UNL     1     170.615 111.657 219.640  1.00  0.00    -0.210 NA
ATOM     13  C   UNL     1     167.996 111.010 219.961  1.00  0.00     0.076 A 
ATOM     14  C   UNL     1     168.560 112.026 220.790  1.00  0.00     0.043 A 
ATOM     15  C   UNL     1     166.644 110.639 220.098  1.00  0.00     0.029 A 
ATOM     16  C   UNL     1     167.721 112.667 221.735  1.00  0.00     0.014 A 
ATOM     17  C   UNL     1     165.831 111.284 221.043  1.00  0.00     0.002 A 
ATOM     18  C   UNL     1     166.368 112.298 221.859  1.00  0.00     0.001 A 
BRANCH  10  19
ATOM     19  C   UNL     1     170.837 110.117 217.846  1.00  0.00     0.020 A 
ATOM     20  C   UNL     1     172.442 108.912 215.859  1.00  0.00     0.118 A 
ATOM     21  C   UNL     1     171.376 108.195 216.440  1.00  0.00     0.047 A 
ATOM     22  C   UNL     1     172.689 110.241 216.256  1.00  0.00     0.047 A 
ATOM     23  C   UNL     1     170.578 108.793 217.430  1.00  0.00     0.016 A 
ATOM     24  C   UNL     1     171.899 110.836 217.256  1.00  0.00     0.016 A 
BRANCH  20  25
ATOM     25  O   UNL     1     173.224 108.321 214.907  1.00  0.00    -0.497 OA
ATOM     26  C   UNL     1     172.448 107.667 213.889  1.00  0.00     0.278 C 
ENDBRANCH  20  25
ENDBRANCH  10  19
ENDBRANCH   7   9
ENDBRANCH   1   7
BRANCH   3  27
ATOM     27  C   UNL     1     169.837 114.324 226.210  1.00  0.00     0.012 C 
ATOM     28  C   UNL     1     168.649 114.957 226.142  1.00  0.00     0.053 C 
BRANCH  28  29
ATOM     29  C   UNL     1     168.044 115.618 227.209  1.00  0.00     0.185 C 
ATOM     30  O   UNL     1     167.418 114.950 228.069  1.00  0.00    -0.289 OA
BRANCH  29  31
ATOM     31  C   UNL     1     168.133 117.032 227.377  1.00  0.00     0.022 A 
ATOM     32  C   UNL     1     168.966 117.817 226.539  1.00  0.00     0.012 A 
ATOM     33  C   UNL     1     167.400 117.698 228.394  1.00  0.00     0.012 A 
ATOM     34  C   UNL     1     169.024 119.215 226.681  1.00  0.00     0.001 A 
ATOM     35  C   UNL     1     167.468 119.094 228.546  1.00  0.00     0.001 A 
ATOM     36  C   UNL     1     168.268 119.856 227.677  1.00  0.00     0.000 A 
ENDBRANCH  29  31
ENDBRANCH  28  29
ENDBRANCH   3  27
TORSDOF 7
ENDMDL
MODEL 2
REMARK VINA RESULT:    -8.768      2.089     10.627
REMARK INTER + INTRA:         -13.435
REMARK INTER:                 -11.988
REMARK INTRA:                  -1.446
REMARK UNBOUND:                -1.078
REMARK SMILES COc1ccc(-c2nc(Nc3cccc(/C=C/C(=O)c4ccccc4)c3)c3ccccc3n2)cc1
REMARK SMILES IDX 11 1 26 2 15 3 14 4 13 5 12 6 10 7 9 9 7 10 33 11 8 12 32 13
REMARK SMILES IDX 27 14 31 15 28 16 30 17 29 18 6 19 3 20 4 21 35 22 5 23
REMARK SMILES IDX 34 24 2 25 1 26 16 27 17 28 18 29 19 30 20 31 21 32 25 33
REMARK SMILES IDX 22 34 24 35 23 36
REMARK H PARENT 10 8
REMARK Flexibility Score: inf
ROOT
ATOM      1  C   UNL     1     168.291 111.093 222.711  1.00  0.00     0.040 A 
ATOM      2  C   UNL     1     168.865 110.916 221.423  1.00  0.00     0.034 A 
ATOM      3  C   UNL     1     168.106 111.083 220.232  1.00  0.00    -0.023 A 
ATOM      4  C   UNL     1     166.718 111.331 220.374  1.00  0.00     0.008 A 
ATOM      5  C   UNL     1     166.124 111.453 221.641  1.00  0.00     0.003 A 
ATOM      6  C   UNL     1     166.906 111.340 222.800  1.00  0.00     0.026 A 
ENDROOT
BRANCH   1   7
ATOM      7  N   UNL     1     168.967 111.049 223.906  1.00  0.00    -0.340 N 
ATOM      8  H   UNL     1     168.746 110.270 224.510  1.00  0.00     0.168 HD
BRANCH   7   9
ATOM      9  C   UNL     1     169.904 111.924 224.389  1.00  0.00     0.142 A 
ATOM     10  C   UNL     1     170.352 113.979 225.528  1.00  0.00     0.162 A 
ATOM     11  N   UNL     1     171.679 113.709 225.540  1.00  0.00    -0.228 NA
ATOM     12  N   UNL     1     169.506 113.085 224.971  1.00  0.00    -0.210 NA
ATOM     13  C   UNL     1     172.175 112.581 224.973  1.00  0.00     0.076 A 
ATOM     14  C   UNL     1     171.298 111.640 224.353  1.00  0.00     0.043 A 
ATOM     15  C   UNL     1     173.565 112.356 225.003  1.00  0.00     0.029 A 
ATOM     16  C   UNL     1     171.862 110.490 223.749  1.00  0.00     0.014 A 
ATOM     17  C   UNL     1     174.104 111.208 224.400  1.00  0.00     0.002 A 
ATOM     18  C   UNL     1     173.255 110.278 223.773  1.00  0.00     0.001 A 
BRANCH  10  19
ATOM     19  C   UNL     1     169.837 115.166 226.066  1.00  0.00     0.020 A 
ATOM     20  C   UNL     1     168.805 117.577 227.113  1.00  0.00     0.118 A 
ATOM     21  C   UNL     1     168.010 116.413 227.099  1.00  0.00     0.047 A 
ATOM     22  C   UNL     1     170.125 117.528 226.624  1.00  0.00     0.047 A 
ATOM     23  C   UNL     1     168.522 115.213 226.576  1.00  0.00     0.016 A 
ATOM     24  C   UNL     1     170.635 116.331 226.090  1.00  0.00     0.016 A 
BRANCH  20  25
ATOM     25  O   UNL     1     168.297 118.745 227.608  1.00  0.00    -0.497 OA
ATOM     26  C   UNL     1     169.180 119.860 227.395  1.00  0.00     0.278 C 
ENDBRANCH  20  25
ENDBRANCH  10  19
ENDBRANCH   7   9
ENDBRANCH   1   7
BRANCH   3  27
ATOM     27  C   UNL     1     168.639 111.028 218.933  1.00  0.00     0.012 C 
ATOM     28  C   UNL     1     169.685 111.735 218.465  1.00  0.00     0.053 C 
BRANCH  28  29
ATOM     29  C   UNL     1     170.164 111.667 217.158  1.00  0.00     0.185 C 
ATOM     30  O   UNL     1     169.815 112.546 216.331  1.00  0.00    -0.289 OA
BRANCH  29  31
ATOM     31  C   UNL     1     171.065 110.647 216.730  1.00  0.00     0.022 A 
ATOM     32  C   UNL     1     172.439 110.926 216.519  1.00  0.00     0.012 A 
ATOM     33  C   UNL     1     170.613 109.323 216.490  1.00  0.00     0.012 A 
ATOM     34  C   UNL     1     173.334 109.911 216.134  1.00  0.00     0.001 A 
ATOM     35  C   UNL     1     171.503 108.311 216.090  1.00  0.00     0.001 A 
ATOM     36  C   UNL     1     172.869 108.601 215.930  1.00  0.00     0.000 A 
ENDBRANCH  29  31
ENDBRANCH  28  29
ENDBRANCH   3  27
TORSDOF 7
ENDMDL
MODEL 3
REMARK VINA RESULT:    -8.552      3.272      9.851
REMARK INTER + INTRA:         -13.130
REMARK INTER:                 -11.618
REMARK INTRA:                  -1.512
REMARK UNBOUND:                -1.078
REMARK SMILES COc1ccc(-c2nc(Nc3cccc(/C=C/C(=O)c4ccccc4)c3)c3ccccc3n2)cc1
REMARK SMILES IDX 11 1 26 2 15 3 14 4 13 5 12 6 10 7 9 9 7 10 33 11 8 12 32 13
REMARK SMILES IDX 27 14 31 15 28 16 30 17 29 18 6 19 3 20 4 21 35 22 5 23
REMARK SMILES IDX 34 24 2 25 1 26 16 27 17 28 18 29 19 30 20 31 21 32 25 33
REMARK SMILES IDX 22 34 24 35 23 36
REMARK H PARENT 10 8
REMARK Flexibility Score: inf
ROOT
ATOM      1  C   UNL     1     169.242 112.678 223.053  1.00  0.00     0.040 A 
ATOM      2  C   UNL     1     170.014 112.119 221.998  1.00  0.00     0.034 A 
ATOM      3  C   UNL     1     169.591 112.180 220.642  1.00  0.00    -0.023 A 
ATOM      4  C   UNL     1     168.309 112.729 220.384  1.00  0.00     0.008 A 
ATOM      5  C   UNL     1     167.510 113.235 221.421  1.00  0.00     0.003 A 
ATOM      6  C   UNL     1     167.975 113.214 222.744  1.00  0.00     0.026 A 
ENDROOT
BRANCH   1   7
ATOM      7  N   UNL     1     169.616 112.753 224.373  1.00  0.00    -0.340 N 
ATOM      8  H   UNL     1     169.281 112.010 224.969  1.00  0.00     0.168 HD
BRANCH   7   9
ATOM      9  C   UNL     1     170.386 113.704 224.989  1.00  0.00     0.142 A 
ATOM     10  C   UNL     1     172.563 114.640 225.317  1.00  0.00     0.162 A 
ATOM     11  N   UNL     1     172.041 115.653 226.048  1.00  0.00    -0.228 NA
ATOM     12  N   UNL     1     171.731 113.707 224.800  1.00  0.00    -0.210 NA
ATOM     13  C   UNL     1     170.711 115.729 226.301  1.00  0.00     0.076 A 
ATOM     14  C   UNL     1     169.822 114.736 225.789  1.00  0.00     0.043 A 
ATOM     15  C   UNL     1     170.224 116.797 227.079  1.00  0.00     0.029 A 
ATOM     16  C   UNL     1     168.445 114.839 226.103  1.00  0.00     0.014 A 
ATOM     17  C   UNL     1     168.854 116.883 227.376  1.00  0.00     0.002 A 
ATOM     18  C   UNL     1     167.967 115.905 226.890  1.00  0.00     0.001 A 
BRANCH  10  19
ATOM     19  C   UNL     1     173.941 114.526 225.093  1.00  0.00     0.020 A 
ATOM     20  C   UNL     1     176.717 114.327 224.610  1.00  0.00     0.118 A 
ATOM     21  C   UNL     1     176.246 114.759 225.865  1.00  0.00     0.047 A 
ATOM     22  C   UNL     1     175.797 113.971 223.603  1.00  0.00     0.047 A 
ATOM     23  C   UNL     1     174.864 114.861 226.107  1.00  0.00     0.016 A 
ATOM     24  C   UNL     1     174.415 114.083 223.839  1.00  0.00     0.016 A 
BRANCH  20  25
ATOM     25  O   UNL     1     178.061 114.243 224.375  1.00  0.00    -0.497 OA
ATOM     26  C   UNL     1     178.812 115.195 225.148  1.00  0.00     0.278 C 
ENDBRANCH  20  25
ENDBRANCH  10  19
ENDBRANCH   7   9
ENDBRANCH   1   7
BRANCH   3  27
ATOM     27  C   UNL     1     170.357 111.744 219.548  1.00  0.00     0.012 C 
ATOM     28  C   UNL     1     170.246 112.163 218.273  1.00  0.00     0.053 C 
BRANCH  28  29
ATOM     29  C   UNL     1     171.011 111.682 217.213  1.00  0.00     0.185 C 
ATOM     30  O   UNL     1     171.337 112.465 216.286  1.00  0.00    -0.289 OA
BRANCH  29  31
ATOM     31  C   UNL     1     171.466 110.331 217.155  1.00  0.00     0.022 A 
ATOM     32  C   UNL     1     172.836 110.012 217.334  1.00  0.00     0.012 A 
ATOM     33  C   UNL     1     170.564 109.263 216.906  1.00  0.00     0.012 A 
ATOM     34  C   UNL     1     173.277 108.676 217.315  1.00  0.00     0.001 A 
ATOM     35  C   UNL     1     171.005 107.929 216.871  1.00  0.00     0.001 A 
ATOM     36  C   UNL     1     172.361 107.633 217.094  1.00  0.00     0.000 A 
ENDBRANCH  29  31
ENDBRANCH  28  29
ENDBRANCH   3  27
TORSDOF 7
ENDMDL
MODEL 4
REMARK VINA RESULT:    -8.482      2.181     11.092
REMARK INTER + INTRA:         -13.031
REMARK INTER:                 -11.852
REMARK INTRA:                  -1.179
REMARK UNBOUND:                -1.078
REMARK SMILES COc1ccc(-c2nc(Nc3cccc(/C=C/C(=O)c4ccccc4)c3)c3ccccc3n2)cc1
REMARK SMILES IDX 11 1 26 2 15 3 14 4 13 5 12 6 10 7 9 9 7 10 33 11 8 12 32 13
REMARK SMILES IDX 27 14 31 15 28 16 30 17 29 18 6 19 3 20 4 21 35 22 5 23
REMARK SMILES IDX 34 24 2 25 1 26 16 27 17 28 18 29 19 30 20 31 21 32 25 33
REMARK SMILES IDX 22 34 24 35 23 36
REMARK H PARENT 10 8
REMARK Flexibility Score: inf
ROOT
ATOM      1  C   UNL     1     168.890 113.081 221.881  1.00  0.00     0.040 A 
ATOM      2  C   UNL     1     169.228 112.401 220.680  1.00  0.00     0.034 A 
ATOM      3  C   UNL     1     168.291 111.584 219.989  1.00  0.00    -0.023 A 
ATOM      4  C   UNL     1     167.028 111.382 220.601  1.00  0.00     0.008 A 
ATOM      5  C   UNL     1     166.699 112.002 221.817  1.00  0.00     0.003 A 
ATOM      6  C   UNL     1     167.621 112.849 222.449  1.00  0.00     0.026 A 
ENDROOT
BRANCH   1   7
ATOM      7  N   UNL     1     169.694 113.965 222.560  1.00  0.00    -0.340 N 
ATOM      8  H   UNL     1     169.893 114.834 222.086  1.00  0.00     0.168 HD
BRANCH   7   9
ATOM      9  C   UNL     1     170.262 113.824 223.799  1.00  0.00     0.142 A 
ATOM     10  C   UNL     1     169.959 113.826 226.172  1.00  0.00     0.162 A 
ATOM     11  N   UNL     1     171.239 113.424 226.357  1.00  0.00    -0.228 NA
ATOM     12  N   UNL     1     169.503 114.002 224.911  1.00  0.00    -0.210 NA
ATOM     13  C   UNL     1     172.078 113.231 225.309  1.00  0.00     0.076 A 
ATOM     14  C   UNL     1     171.621 113.442 223.973  1.00  0.00     0.043 A 
ATOM     15  C   UNL     1     173.403 112.826 225.561  1.00  0.00     0.029 A 
ATOM     16  C   UNL     1     172.540 113.257 222.911  1.00  0.00     0.014 A 
ATOM     17  C   UNL     1     174.297 112.644 224.493  1.00  0.00     0.002 A 
ATOM     18  C   UNL     1     173.866 112.861 223.170  1.00  0.00     0.001 A 
BRANCH  10  19
ATOM     19  C   UNL     1     169.102 114.076 227.251  1.00  0.00     0.020 A 
ATOM     20  C   UNL     1     167.408 114.589 229.452  1.00  0.00     0.118 A 
ATOM     21  C   UNL     1     167.296 115.360 228.278  1.00  0.00     0.047 A 
ATOM     22  C   UNL     1     168.351 113.545 229.516  1.00  0.00     0.047 A 
ATOM     23  C   UNL     1     168.140 115.107 227.182  1.00  0.00     0.016 A 
ATOM     24  C   UNL     1     169.205 113.298 228.425  1.00  0.00     0.016 A 
BRANCH  20  25
ATOM     25  O   UNL     1     166.595 114.848 230.520  1.00  0.00    -0.497 OA
ATOM     26  C   UNL     1     166.410 113.697 231.361  1.00  0.00     0.278 C 
ENDBRANCH  20  25
ENDBRANCH  10  19
ENDBRANCH   7   9
ENDBRANCH   1   7
BRANCH   3  27
ATOM     27  C   UNL     1     168.529 110.975 218.746  1.00  0.00     0.012 C 
ATOM     28  C   UNL     1     169.730 110.657 218.226  1.00  0.00     0.053 C 
BRANCH  28  29
ATOM     29  C   UNL     1     169.921 110.076 216.973  1.00  0.00     0.185 C 
ATOM     30  O   UNL     1     168.935 109.932 216.208  1.00  0.00    -0.289 OA
BRANCH  29  31
ATOM     31  C   UNL     1     171.207 109.664 216.514  1.00  0.00     0.022 A 
ATOM     32  C   UNL     1     172.340 110.504 216.660  1.00  0.00     0.012 A 
ATOM     33  C   UNL     1     171.392 108.404 215.886  1.00  0.00     0.012 A 
ATOM     34  C   UNL     1     173.614 110.080 216.241  1.00  0.00     0.001 A 
ATOM     35  C   UNL     1     172.662 107.985 215.453  1.00  0.00     0.001 A 
ATOM     36  C   UNL     1     173.779 108.817 215.647  1.00  0.00     0.000 A 
ENDBRANCH  29  31
ENDBRANCH  28  29
ENDBRANCH   3  27
TORSDOF 7
ENDMDL
MODEL 5
REMARK VINA RESULT:    -8.411      2.185     11.239
REMARK INTER + INTRA:         -12.931
REMARK INTER:                 -11.512
REMARK INTRA:                  -1.419
REMARK UNBOUND:                -1.078
REMARK SMILES COc1ccc(-c2nc(Nc3cccc(/C=C/C(=O)c4ccccc4)c3)c3ccccc3n2)cc1
REMARK SMILES IDX 11 1 26 2 15 3 14 4 13 5 12 6 10 7 9 9 7 10 33 11 8 12 32 13
REMARK SMILES IDX 27 14 31 15 28 16 30 17 29 18 6 19 3 20 4 21 35 22 5 23
REMARK SMILES IDX 34 24 2 25 1 26 16 27 17 28 18 29 19 30 20 31 21 32 25 33
REMARK SMILES IDX 22 34 24 35 23 36
REMARK H PARENT 10 8
REMARK Flexibility Score: inf
ROOT
ATOM      1  C   UNL     1     169.336 112.657 222.949  1.00  0.00     0.040 A 
ATOM      2  C   UNL     1     170.129 112.186 221.868  1.00  0.00     0.034 A 
ATOM      3  C   UNL     1     169.674 112.236 220.522  1.00  0.00    -0.023 A 
ATOM      4  C   UNL     1     168.345 112.678 220.301  1.00  0.00     0.008 A 
ATOM      5  C   UNL     1     167.528 113.094 221.364  1.00  0.00     0.003 A 
ATOM      6  C   UNL     1     168.021 113.089 222.677  1.00  0.00     0.026 A 
ENDROOT
BRANCH   1   7
ATOM      7  N   UNL     1     169.730 112.739 224.262  1.00  0.00    -0.340 N 
ATOM      8  H   UNL     1     169.470 111.961 224.851  1.00  0.00     0.168 HD
BRANCH   7   9
ATOM      9  C   UNL     1     170.434 113.739 224.881  1.00  0.00     0.142 A 
ATOM     10  C   UNL     1     170.373 115.786 226.116  1.00  0.00     0.162 A 
ATOM     11  N   UNL     1     171.716 115.747 226.290  1.00  0.00    -0.228 NA
ATOM     12  N   UNL     1     169.770 114.787 225.434  1.00  0.00    -0.210 NA
ATOM     13  C   UNL     1     172.467 114.747 225.765  1.00  0.00     0.076 A 
ATOM     14  C   UNL     1     171.850 113.700 225.016  1.00  0.00     0.043 A 
ATOM     15  C   UNL     1     173.861 114.763 225.965  1.00  0.00     0.029 A 
ATOM     16  C   UNL     1     172.676 112.692 224.461  1.00  0.00     0.014 A 
ATOM     17  C   UNL     1     174.662 113.753 225.410  1.00  0.00     0.002 A 
ATOM     18  C   UNL     1     174.071 112.720 224.658  1.00  0.00     0.001 A 
BRANCH  10  19
ATOM     19  C   UNL     1     169.597 116.842 226.612  1.00  0.00     0.020 A 
ATOM     20  C   UNL     1     168.023 118.982 227.572  1.00  0.00     0.118 A 
ATOM     21  C   UNL     1     167.671 117.651 227.876  1.00  0.00     0.047 A 
ATOM     22  C   UNL     1     169.177 119.241 226.807  1.00  0.00     0.047 A 
ATOM     23  C   UNL     1     168.452 116.585 227.398  1.00  0.00     0.016 A 
ATOM     24  C   UNL     1     169.953 118.176 226.317  1.00  0.00     0.016 A 
BRANCH  20  25
ATOM     25  O   UNL     1     167.252 120.014 228.027  1.00  0.00    -0.497 OA
ATOM     26  C   UNL     1     168.039 121.133 228.469  1.00  0.00     0.278 C 
ENDBRANCH  20  25
ENDBRANCH  10  19
ENDBRANCH   7   9
ENDBRANCH   1   7
BRANCH   3  27
ATOM     27  C   UNL     1     170.450 111.888 219.405  1.00  0.00     0.012 C 
ATOM     28  C   UNL     1     170.154 112.134 218.114  1.00  0.00     0.053 C 
BRANCH  28  29
ATOM     29  C   UNL     1     170.944 111.745 217.033  1.00  0.00     0.185 C 
ATOM     30  O   UNL     1     171.262 112.599 216.168  1.00  0.00    -0.289 OA
BRANCH  29  31
ATOM     31  C   UNL     1     171.430 110.412 216.888  1.00  0.00     0.022 A 
ATOM     32  C   UNL     1     170.539 109.310 216.836  1.00  0.00     0.012 A 
ATOM     33  C   UNL     1     172.822 110.145 216.801  1.00  0.00     0.012 A 
ATOM     34  C   UNL     1     171.019 107.999 216.654  1.00  0.00     0.001 A 
ATOM     35  C   UNL     1     173.303 108.834 216.634  1.00  0.00     0.001 A 
ATOM     36  C   UNL     1     172.399 107.762 216.542  1.00  0.00     0.000 A 
ENDBRANCH  29  31
ENDBRANCH  28  29
ENDBRANCH   3  27
TORSDOF 7
ENDMDL
MODEL 6
REMARK VINA RESULT:    -8.381      3.786     11.293
REMARK INTER + INTRA:         -12.889
REMARK INTER:                 -11.541
REMARK INTRA:                  -1.348
REMARK UNBOUND:                -1.078
REMARK SMILES COc1ccc(-c2nc(Nc3cccc(/C=C/C(=O)c4ccccc4)c3)c3ccccc3n2)cc1
REMARK SMILES IDX 11 1 26 2 15 3 14 4 13 5 12 6 10 7 9 9 7 10 33 11 8 12 32 13
REMARK SMILES IDX 27 14 31 15 28 16 30 17 29 18 6 19 3 20 4 21 35 22 5 23
REMARK SMILES IDX 34 24 2 25 1 26 16 27 17 28 18 29 19 30 20 31 21 32 25 33
REMARK SMILES IDX 22 34 24 35 23 36
REMARK H PARENT 10 8
REMARK Flexibility Score: inf
ROOT
ATOM      1  C   UNL     1     170.370 114.091 226.184  1.00  0.00     0.040 A 
ATOM      2  C   UNL     1     169.368 113.704 225.253  1.00  0.00     0.034 A 
ATOM      3  C   UNL     1     169.628 113.621 223.858  1.00  0.00    -0.023 A 
ATOM      4  C   UNL     1     170.904 114.044 223.407  1.00  0.00     0.008 A 
ATOM      5  C   UNL     1     171.887 114.483 224.308  1.00  0.00     0.003 A 
ATOM      6  C   UNL     1     171.624 114.501 225.686  1.00  0.00     0.026 A 
ENDROOT
BRANCH   1   7
ATOM      7  N   UNL     1     170.239 114.104 227.551  1.00  0.00    -0.340 N 
ATOM      8  H   UNL     1     171.006 113.704 228.072  1.00  0.00     0.168 HD
BRANCH   7   9
ATOM      9  C   UNL     1     169.202 114.590 228.304  1.00  0.00     0.142 A 
ATOM     10  C   UNL     1     167.819 116.457 228.872  1.00  0.00     0.162 A 
ATOM     11  N   UNL     1     167.040 115.671 229.652  1.00  0.00    -0.228 NA
ATOM     12  N   UNL     1     168.862 115.902 228.215  1.00  0.00    -0.210 NA
ATOM     13  C   UNL     1     167.307 114.351 229.814  1.00  0.00     0.076 A 
ATOM     14  C   UNL     1     168.422 113.755 229.152  1.00  0.00     0.043 A 
ATOM     15  C   UNL     1     166.471 113.583 230.647  1.00  0.00     0.029 A 
ATOM     16  C   UNL     1     168.680 112.380 229.373  1.00  0.00     0.014 A 
ATOM     17  C   UNL     1     166.742 112.220 230.851  1.00  0.00     0.002 A 
ATOM     18  C   UNL     1     167.845 111.620 230.216  1.00  0.00     0.001 A 
BRANCH  10  19
ATOM     19  C   UNL     1     167.580 117.831 228.739  1.00  0.00     0.020 A 
ATOM     20  C   UNL     1     167.111 120.607 228.513  1.00  0.00     0.118 A 
ATOM     21  C   UNL     1     168.057 119.978 227.678  1.00  0.00     0.047 A 
ATOM     22  C   UNL     1     166.383 119.842 229.444  1.00  0.00     0.047 A 
ATOM     23  C   UNL     1     168.293 118.597 227.791  1.00  0.00     0.016 A 
ATOM     24  C   UNL     1     166.626 118.462 229.567  1.00  0.00     0.016 A 
BRANCH  20  25
ATOM     25  O   UNL     1     166.896 121.953 228.409  1.00  0.00    -0.497 OA
ATOM     26  C   UNL     1     167.943 122.724 229.022  1.00  0.00     0.278 C 
ENDBRANCH  20  25
ENDBRANCH  10  19
ENDBRANCH   7   9
ENDBRANCH   1   7
BRANCH   3  27
ATOM     27  C   UNL     1     168.714 113.144 222.904  1.00  0.00     0.012 C 
ATOM     28  C   UNL     1     168.963 112.240 221.937  1.00  0.00     0.053 C 
BRANCH  28  29
ATOM     29  C   UNL     1     168.030 111.814 220.993  1.00  0.00     0.185 C 
ATOM     30  O   UNL     1     166.859 111.552 221.365  1.00  0.00    -0.289 OA
BRANCH  29  31
ATOM     31  C   UNL     1     168.350 111.692 219.608  1.00  0.00     0.022 A 
ATOM     32  C   UNL     1     167.741 110.697 218.802  1.00  0.00     0.012 A 
ATOM     33  C   UNL     1     169.296 112.555 218.996  1.00  0.00     0.012 A 
ATOM     34  C   UNL     1     168.029 110.602 217.428  1.00  0.00     0.001 A 
ATOM     35  C   UNL     1     169.596 112.452 217.626  1.00  0.00     0.001 A 
ATOM     36  C   UNL     1     168.948 111.485 216.837  1.00  0.00     0.000 A 
ENDBRANCH  29  31
ENDBRANCH  28  29
ENDBRANCH   3  27
TORSDOF 7
ENDMDL
MODEL 7
REMARK VINA RESULT:    -8.378      3.856      6.222
REMARK INTER + INTRA:         -12.885
REMARK INTER:                 -11.604
REMARK INTRA:                  -1.281
REMARK UNBOUND:                -1.078
REMARK SMILES COc1ccc(-c2nc(Nc3cccc(/C=C/C(=O)c4ccccc4)c3)c3ccccc3n2)cc1
REMARK SMILES IDX 11 1 26 2 15 3 14 4 13 5 12 6 10 7 9 9 7 10 33 11 8 12 32 13
REMARK SMILES IDX 27 14 31 15 28 16 30 17 29 18 6 19 3 20 4 21 35 22 5 23
REMARK SMILES IDX 34 24 2 25 1 26 16 27 17 28 18 29 19 30 20 31 21 32 25 33
REMARK SMILES IDX 22 34 24 35 23 36
REMARK H PARENT 10 8
REMARK Flexibility Score: inf
ROOT
ATOM      1  C   UNL     1     169.154 114.947 226.259  1.00  0.00     0.040 A 
ATOM      2  C   UNL     1     169.161 116.327 226.598  1.00  0.00     0.034 A 
ATOM      3  C   UNL     1     169.623 116.789 227.861  1.00  0.00    -0.023 A 
ATOM      4  C   UNL     1     169.979 115.809 228.822  1.00  0.00     0.008 A 
ATOM      5  C   UNL     1     169.924 114.438 228.522  1.00  0.00     0.003 A 
ATOM      6  C   UNL     1     169.519 114.011 227.248  1.00  0.00     0.026 A 
ENDROOT
BRANCH   1   7
ATOM      7  N   UNL     1     168.821 114.420 225.034  1.00  0.00    -0.340 N 
ATOM      8  H   UNL     1     167.833 114.353 224.837  1.00  0.00     0.168 HD
BRANCH   7   9
ATOM      9  C   UNL     1     169.654 113.975 224.042  1.00  0.00     0.142 A 
ATOM     10  C   UNL     1     171.899 113.649 223.284  1.00  0.00     0.162 A 
ATOM     11  N   UNL     1     171.457 112.986 222.189  1.00  0.00    -0.228 NA
ATOM     12  N   UNL     1     170.999 114.111 224.180  1.00  0.00    -0.210 NA
ATOM     13  C   UNL     1     170.132 112.811 221.958  1.00  0.00     0.076 A 
ATOM     14  C   UNL     1     169.166 113.318 222.878  1.00  0.00     0.043 A 
ATOM     15  C   UNL     1     169.727 112.125 220.796  1.00  0.00     0.029 A 
ATOM     16  C   UNL     1     167.793 113.137 222.581  1.00  0.00     0.014 A 
ATOM     17  C   UNL     1     168.361 111.953 220.522  1.00  0.00     0.002 A 
ATOM     18  C   UNL     1     167.396 112.460 221.412  1.00  0.00     0.001 A 
BRANCH  10  19
ATOM     19  C   UNL     1     173.264 113.879 223.505  1.00  0.00     0.020 A 
ATOM     20  C   UNL     1     176.015 114.309 223.979  1.00  0.00     0.118 A 
ATOM     21  C   UNL     1     175.564 113.957 222.691  1.00  0.00     0.047 A 
ATOM     22  C   UNL     1     175.084 114.469 225.025  1.00  0.00     0.047 A 
ATOM     23  C   UNL     1     174.195 113.741 222.453  1.00  0.00     0.016 A 
ATOM     24  C   UNL     1     173.716 114.241 224.792  1.00  0.00     0.016 A 
BRANCH  20  25
ATOM     25  O   UNL     1     177.348 114.504 224.207  1.00  0.00    -0.497 OA
ATOM     26  C   UNL     1     177.592 115.302 225.378  1.00  0.00     0.278 C 
ENDBRANCH  20  25
ENDBRANCH  10  19
ENDBRANCH   7   9
ENDBRANCH   1   7
BRANCH   3  27
ATOM     27  C   UNL     1     169.756 118.142 228.215  1.00  0.00     0.012 C 
ATOM     28  C   UNL     1     169.508 119.205 227.426  1.00  0.00     0.053 C 
BRANCH  28  29
ATOM     29  C   UNL     1     169.680 120.533 227.812  1.00  0.00     0.185 C 
ATOM     30  O   UNL     1     170.730 121.137 227.481  1.00  0.00    -0.289 OA
BRANCH  29  31
ATOM     31  C   UNL     1     168.687 121.245 228.550  1.00  0.00     0.022 A 
ATOM     32  C   UNL     1     167.315 120.907 228.445  1.00  0.00     0.012 A 
ATOM     33  C   UNL     1     169.041 122.322 229.404  1.00  0.00     0.012 A 
ATOM     34  C   UNL     1     166.342 121.584 229.202  1.00  0.00     0.001 A 
ATOM     35  C   UNL     1     168.069 123.010 230.151  1.00  0.00     0.001 A 
ATOM     36  C   UNL     1     166.718 122.629 230.063  1.00  0.00     0.000 A 
ENDBRANCH  29  31
ENDBRANCH  28  29
ENDBRANCH   3  27
TORSDOF 7
ENDMDL
MODEL 8
REMARK VINA RESULT:    -8.376      4.328      7.017
REMARK INTER + INTRA:         -12.882
REMARK INTER:                 -11.456
REMARK INTRA:                  -1.426
REMARK UNBOUND:                -1.078
REMARK SMILES COc1ccc(-c2nc(Nc3cccc(/C=C/C(=O)c4ccccc4)c3)c3ccccc3n2)cc1
REMARK SMILES IDX 11 1 26 2 15 3 14 4 13 5 12 6 10 7 9 9 7 10 33 11 8 12 32 13
REMARK SMILES IDX 27 14 31 15 28 16 30 17 29 18 6 19 3 20 4 21 35 22 5 23
REMARK SMILES IDX 34 24 2 25 1 26 16 27 17 28 18 29 19 30 20 31 21 32 25 33
REMARK SMILES IDX 22 34 24 35 23 36
REMARK H PARENT 10 8
REMARK Flexibility Score: inf
ROOT
ATOM      1  C   UNL     1     170.595 111.323 222.153  1.00  0.00     0.040 A 
ATOM      2  C   UNL     1     171.869 111.944 222.061  1.00  0.00     0.034 A 
ATOM      3  C   UNL     1     172.148 113.186 222.695  1.00  0.00    -0.023 A 
ATOM      4  C   UNL     1     171.071 113.844 223.340  1.00  0.00     0.008 A 
ATOM      5  C   UNL     1     169.791 113.270 223.392  1.00  0.00     0.003 A 
ATOM      6  C   UNL     1     169.556 112.017 222.808  1.00  0.00     0.026 A 
ENDROOT
BRANCH   1   7
ATOM      7  N   UNL     1     170.265 110.084 221.660  1.00  0.00    -0.340 N 
ATOM      8  H   UNL     1     170.036 109.381 222.348  1.00  0.00     0.168 HD
BRANCH   7   9
ATOM      9  C   UNL     1     170.204 109.674 220.354  1.00  0.00     0.142 A 
ATOM     10  C   UNL     1     168.969 109.629 218.306  1.00  0.00     0.162 A 
ATOM     11  N   UNL     1     170.006 109.038 217.667  1.00  0.00    -0.228 NA
ATOM     12  N   UNL     1     169.095 109.940 219.616  1.00  0.00    -0.210 NA
ATOM     13  C   UNL     1     171.150 108.722 218.323  1.00  0.00     0.076 A 
ATOM     14  C   UNL     1     171.290 109.016 219.712  1.00  0.00     0.043 A 
ATOM     15  C   UNL     1     172.193 108.096 217.612  1.00  0.00     0.029 A 
ATOM     16  C   UNL     1     172.491 108.641 220.363  1.00  0.00     0.014 A 
ATOM     17  C   UNL     1     173.378 107.736 218.274  1.00  0.00     0.002 A 
ATOM     18  C   UNL     1     173.526 108.007 219.648  1.00  0.00     0.001 A 
BRANCH  10  19
ATOM     19  C   UNL     1     167.764 109.913 217.649  1.00  0.00     0.020 A 
ATOM     20  C   UNL     1     165.324 110.511 216.357  1.00  0.00     0.118 A 
ATOM     21  C   UNL     1     166.548 110.893 215.772  1.00  0.00     0.047 A 
ATOM     22  C   UNL     1     165.323 109.807 217.578  1.00  0.00     0.047 A 
ATOM     23  C   UNL     1     167.763 110.598 216.414  1.00  0.00     0.016 A 
ATOM     24  C   UNL     1     166.537 109.522 218.228  1.00  0.00     0.016 A 
BRANCH  20  25
ATOM     25  O   UNL     1     164.145 110.813 215.736  1.00  0.00    -0.497 OA
ATOM     26  C   UNL     1     164.244 110.734 214.304  1.00  0.00     0.278 C 
ENDBRANCH  20  25
ENDBRANCH  10  19
ENDBRANCH   7   9
ENDBRANCH   1   7
BRANCH   3  27
ATOM     27  C   UNL     1     173.414 113.796 222.731  1.00  0.00     0.012 C 
ATOM     28  C   UNL     1     174.599 113.197 222.504  1.00  0.00     0.053 C 
BRANCH  28  29
ATOM     29  C   UNL     1     175.835 113.837 222.576  1.00  0.00     0.185 C 
ATOM     30  O   UNL     1     176.198 114.578 221.629  1.00  0.00    -0.289 OA
BRANCH  29  31
ATOM     31  C   UNL     1     176.695 113.705 223.707  1.00  0.00     0.022 A 
ATOM     32  C   UNL     1     176.970 112.434 224.272  1.00  0.00     0.012 A 
ATOM     33  C   UNL     1     177.293 114.843 224.310  1.00  0.00     0.012 A 
ATOM     34  C   UNL     1     177.849 112.302 225.363  1.00  0.00     0.001 A 
ATOM     35  C   UNL     1     178.159 114.713 225.410  1.00  0.00     0.001 A 
ATOM     36  C   UNL     1     178.452 113.439 225.926  1.00  0.00     0.000 A 
ENDBRANCH  29  31
ENDBRANCH  28  29
ENDBRANCH   3  27
TORSDOF 7
ENDMDL
MODEL 9
REMARK VINA RESULT:    -8.348      3.772      9.306
REMARK INTER + INTRA:         -12.843
REMARK INTER:                 -11.242
REMARK INTRA:                  -1.601
REMARK UNBOUND:                -1.078
REMARK SMILES COc1ccc(-c2nc(Nc3cccc(/C=C/C(=O)c4ccccc4)c3)c3ccccc3n2)cc1
REMARK SMILES IDX 11 1 26 2 15 3 14 4 13 5 12 6 10 7 9 9 7 10 33 11 8 12 32 13
REMARK SMILES IDX 27 14 31 15 28 16 30 17 29 18 6 19 3 20 4 21 35 22 5 23
REMARK SMILES IDX 34 24 2 25 1 26 16 27 17 28 18 29 19 30 20 31 21 32 25 33
REMARK SMILES IDX 22 34 24 35 23 36
REMARK H PARENT 10 8
REMARK Flexibility Score: inf
ROOT
ATOM      1  C   UNL     1     173.329 108.757 220.313  1.00  0.00     0.040 A 
ATOM      2  C   UNL     1     172.394 109.520 219.563  1.00  0.00     0.034 A 
ATOM      3  C   UNL     1     171.950 109.113 218.275  1.00  0.00    -0.023 A 
ATOM      4  C   UNL     1     172.558 107.963 217.711  1.00  0.00     0.008 A 
ATOM      5  C   UNL     1     173.526 107.229 218.416  1.00  0.00     0.003 A 
ATOM      6  C   UNL     1     173.904 107.620 219.708  1.00  0.00     0.026 A 
ENDROOT
BRANCH   1   7
ATOM      7  N   UNL     1     173.737 109.020 221.598  1.00  0.00    -0.340 N 
ATOM      8  H   UNL     1     174.516 108.473 221.934  1.00  0.00     0.168 HD
BRANCH   7   9
ATOM      9  C   UNL     1     173.227 109.930 222.486  1.00  0.00     0.142 A 
ATOM     10  C   UNL     1     171.384 111.315 223.125  1.00  0.00     0.162 A 
ATOM     11  N   UNL     1     172.013 111.661 224.273  1.00  0.00    -0.228 NA
ATOM     12  N   UNL     1     171.993 110.459 222.274  1.00  0.00    -0.210 NA
ATOM     13  C   UNL     1     173.252 111.194 224.567  1.00  0.00     0.076 A 
ATOM     14  C   UNL     1     173.923 110.313 223.666  1.00  0.00     0.043 A 
ATOM     15  C   UNL     1     173.866 111.596 225.769  1.00  0.00     0.029 A 
ATOM     16  C   UNL     1     175.227 109.873 224.000  1.00  0.00     0.014 A 
ATOM     17  C   UNL     1     175.158 111.147 226.083  1.00  0.00     0.002 A 
ATOM     18  C   UNL     1     175.839 110.288 225.199  1.00  0.00     0.001 A 
BRANCH  10  19
ATOM     19  C   UNL     1     170.126 111.833 222.790  1.00  0.00     0.020 A 
ATOM     20  C   UNL     1     167.572 112.836 222.121  1.00  0.00     0.118 A 
ATOM     21  C   UNL     1     168.268 113.355 223.230  1.00  0.00     0.047 A 
ATOM     22  C   UNL     1     168.165 111.831 221.331  1.00  0.00     0.047 A 
ATOM     23  C   UNL     1     169.539 112.855 223.566  1.00  0.00     0.016 A 
ATOM     24  C   UNL     1     169.430 111.321 221.673  1.00  0.00     0.016 A 
BRANCH  20  25
ATOM     25  O   UNL     1     166.331 113.315 221.807  1.00  0.00    -0.497 OA
ATOM     26  C   UNL     1     165.407 112.266 221.470  1.00  0.00     0.278 C 
ENDBRANCH  20  25
ENDBRANCH  10  19
ENDBRANCH   7   9
ENDBRANCH   1   7
BRANCH   3  27
ATOM     27  C   UNL     1     170.951 109.764 217.533  1.00  0.00     0.012 C 
ATOM     28  C   UNL     1     169.913 110.466 218.028  1.00  0.00     0.053 C 
BRANCH  28  29
ATOM     29  C   UNL     1     168.928 111.075 217.252  1.00  0.00     0.185 C 
ATOM     30  O   UNL     1     169.234 112.063 216.540  1.00  0.00    -0.289 OA
BRANCH  29  31
ATOM     31  C   UNL     1     167.585 110.596 217.215  1.00  0.00     0.022 A 
ATOM     32  C   UNL     1     166.769 110.795 216.073  1.00  0.00     0.012 A 
ATOM     33  C   UNL     1     167.018 109.915 218.325  1.00  0.00     0.012 A 
ATOM     34  C   UNL     1     165.457 110.288 216.023  1.00  0.00     0.001 A 
ATOM     35  C   UNL     1     165.703 109.422 218.282  1.00  0.00     0.001 A 
ATOM     36  C   UNL     1     164.927 109.593 217.122  1.00  0.00     0.000 A 
ENDBRANCH  29  31
ENDBRANCH  28  29
ENDBRANCH   3  27
TORSDOF 7
ENDMDL
MODEL 10
REMARK VINA RESULT:    -8.206      3.801     10.805
REMARK INTER + INTRA:         -12.642
REMARK INTER:                 -11.260
REMARK INTRA:                  -1.382
REMARK UNBOUND:                -1.078
REMARK SMILES COc1ccc(-c2nc(Nc3cccc(/C=C/C(=O)c4ccccc4)c3)c3ccccc3n2)cc1
REMARK SMILES IDX 11 1 26 2 15 3 14 4 13 5 12 6 10 7 9 9 7 10 33 11 8 12 32 13
REMARK SMILES IDX 27 14 31 15 28 16 30 17 29 18 6 19 3 20 4 21 35 22 5 23
REMARK SMILES IDX 34 24 2 25 1 26 16 27 17 28 18 29 19 30 20 31 21 32 25 33
REMARK SMILES IDX 22 34 24 35 23 36
REMARK H PARENT 10 8
REMARK Flexibility Score: inf
ROOT
ATOM      1  C   UNL     1     171.135 114.439 225.312  1.00  0.00     0.040 A 
ATOM      2  C   UNL     1     170.053 114.077 224.465  1.00  0.00     0.034 A 
ATOM      3  C   UNL     1     170.261 113.588 223.146  1.00  0.00    -0.023 A 
ATOM      4  C   UNL     1     171.592 113.573 222.660  1.00  0.00     0.008 A 
ATOM      5  C   UNL     1     172.668 113.980 223.465  1.00  0.00     0.003 A 
ATOM      6  C   UNL     1     172.442 114.404 224.782  1.00  0.00     0.026 A 
ENDROOT
BRANCH   1   7
ATOM      7  N   UNL     1     171.035 114.824 226.627  1.00  0.00    -0.340 N 
ATOM      8  H   UNL     1     171.903 114.873 227.140  1.00  0.00     0.168 HD
BRANCH   7   9
ATOM      9  C   UNL     1     169.910 115.155 227.336  1.00  0.00     0.142 A 
ATOM     10  C   UNL     1     168.255 114.484 228.927  1.00  0.00     0.162 A 
ATOM     11  N   UNL     1     167.727 115.730 228.937  1.00  0.00    -0.228 NA
ATOM     12  N   UNL     1     169.329 114.232 228.145  1.00  0.00    -0.210 NA
ATOM     13  C   UNL     1     168.230 116.716 228.154  1.00  0.00     0.076 A 
ATOM     14  C   UNL     1     169.345 116.460 227.299  1.00  0.00     0.043 A 
ATOM     15  C   UNL     1     167.634 117.992 228.194  1.00  0.00     0.029 A 
ATOM     16  C   UNL     1     169.819 117.511 226.477  1.00  0.00     0.014 A 
ATOM     17  C   UNL     1     168.121 119.022 227.373  1.00  0.00     0.002 A 
ATOM     18  C   UNL     1     169.211 118.781 226.515  1.00  0.00     0.001 A 
BRANCH  10  19
ATOM     19  C   UNL     1     167.710 113.447 229.695  1.00  0.00     0.020 A 
ATOM     20  C   UNL     1     166.649 111.352 231.265  1.00  0.00     0.118 A 
ATOM     21  C   UNL     1     166.063 112.633 231.304  1.00  0.00     0.047 A 
ATOM     22  C   UNL     1     167.751 111.113 230.421  1.00  0.00     0.047 A 
ATOM     23  C   UNL     1     166.592 113.678 230.525  1.00  0.00     0.016 A 
ATOM     24  C   UNL     1     168.289 112.159 229.650  1.00  0.00     0.016 A 
BRANCH  20  25
ATOM     25  O   UNL     1     166.140 110.345 232.036  1.00  0.00    -0.497 OA
ATOM     26  C   UNL     1     164.910 110.716 232.682  1.00  0.00     0.278 C 
ENDBRANCH  20  25
ENDBRANCH  10  19
ENDBRANCH   7   9
ENDBRANCH   1   7
BRANCH   3  27
ATOM     27  C   UNL     1     169.242 113.115 222.302  1.00  0.00     0.012 C 
ATOM     28  C   UNL     1     169.252 111.965 221.600  1.00  0.00     0.053 C 
BRANCH  28  29
ATOM     29  C   UNL     1     168.227 111.548 220.752  1.00  0.00     0.185 C 
ATOM     30  O   UNL     1     167.104 111.269 221.240  1.00  0.00    -0.289 OA
BRANCH  29  31
ATOM     31  C   UNL     1     168.400 111.452 219.340  1.00  0.00     0.022 A 
ATOM     32  C   UNL     1     167.655 110.521 218.573  1.00  0.00     0.012 A 
ATOM     33  C   UNL     1     169.332 112.278 218.658  1.00  0.00     0.012 A 
ATOM     34  C   UNL     1     167.799 110.455 217.175  1.00  0.00     0.001 A 
ATOM     35  C   UNL     1     169.487 112.203 217.262  1.00  0.00     0.001 A 
ATOM     36  C   UNL     1     168.707 111.302 216.518  1.00  0.00     0.000 A 
ENDBRANCH  29  31
ENDBRANCH  28  29
ENDBRANCH   3  27
TORSDOF 7
ENDMDL
MODEL 11
REMARK VINA RESULT:    -8.198      2.860     10.567
REMARK INTER + INTRA:         -12.631
REMARK INTER:                 -11.558
REMARK INTRA:                  -1.073
REMARK UNBOUND:                -1.078
REMARK SMILES COc1ccc(-c2nc(Nc3cccc(/C=C/C(=O)c4ccccc4)c3)c3ccccc3n2)cc1
REMARK SMILES IDX 11 1 26 2 15 3 14 4 13 5 12 6 10 7 9 9 7 10 33 11 8 12 32 13
REMARK SMILES IDX 27 14 31 15 28 16 30 17 29 18 6 19 3 20 4 21 35 22 5 23
REMARK SMILES IDX 34 24 2 25 1 26 16 27 17 28 18 29 19 30 20 31 21 32 25 33
REMARK SMILES IDX 22 34 24 35 23 36
REMARK H PARENT 10 8
REMARK Flexibility Score: inf
ROOT
ATOM      1  C   UNL     1     172.400 111.896 222.389  1.00  0.00     0.040 A 
ATOM      2  C   UNL     1     171.884 111.396 221.163  1.00  0.00     0.034 A 
ATOM      3  C   UNL     1     171.062 110.237 221.109  1.00  0.00    -0.023 A 
ATOM      4  C   UNL     1     170.859 109.527 222.319  1.00  0.00     0.008 A 
ATOM      5  C   UNL     1     171.408 109.977 223.530  1.00  0.00     0.003 A 
ATOM      6  C   UNL     1     172.168 111.155 223.566  1.00  0.00     0.026 A 
ENDROOT
BRANCH   1   7
ATOM      7  N   UNL     1     173.116 113.058 222.547  1.00  0.00    -0.340 N 
ATOM      8  H   UNL     1     173.569 113.414 221.718  1.00  0.00     0.168 HD
BRANCH   7   9
ATOM      9  C   UNL     1     173.295 113.801 223.685  1.00  0.00     0.142 A 
ATOM     10  C   UNL     1     172.294 115.077 225.443  1.00  0.00     0.162 A 
ATOM     11  N   UNL     1     173.491 115.200 226.065  1.00  0.00    -0.228 NA
ATOM     12  N   UNL     1     172.224 114.379 224.288  1.00  0.00    -0.210 NA
ATOM     13  C   UNL     1     174.620 114.669 225.534  1.00  0.00     0.076 A 
ATOM     14  C   UNL     1     174.569 113.954 224.299  1.00  0.00     0.043 A 
ATOM     15  C   UNL     1     175.841 114.838 226.216  1.00  0.00     0.029 A 
ATOM     16  C   UNL     1     175.778 113.441 223.767  1.00  0.00     0.014 A 
ATOM     17  C   UNL     1     177.027 114.319 225.674  1.00  0.00     0.002 A 
ATOM     18  C   UNL     1     176.996 113.623 224.451  1.00  0.00     0.001 A 
BRANCH  10  19
ATOM     19  C   UNL     1     171.132 115.666 225.959  1.00  0.00     0.020 A 
ATOM     20  C   UNL     1     168.784 116.875 226.961  1.00  0.00     0.118 A 
ATOM     21  C   UNL     1     168.862 115.473 226.837  1.00  0.00     0.047 A 
ATOM     22  C   UNL     1     169.892 117.670 226.605  1.00  0.00     0.047 A 
ATOM     23  C   UNL     1     170.030 114.870 226.336  1.00  0.00     0.016 A 
ATOM     24  C   UNL     1     171.056 117.070 226.093  1.00  0.00     0.016 A 
BRANCH  20  25
ATOM     25  O   UNL     1     167.642 117.457 227.434  1.00  0.00    -0.497 OA
ATOM     26  C   UNL     1     167.268 116.956 228.729  1.00  0.00     0.278 C 
ENDBRANCH  20  25
ENDBRANCH  10  19
ENDBRANCH   7   9
ENDBRANCH   1   7
BRANCH   3  27
ATOM     27  C   UNL     1     170.437 109.757 219.946  1.00  0.00     0.012 C 
ATOM     28  C   UNL     1     170.197 110.454 218.819  1.00  0.00     0.053 C 
BRANCH  28  29
ATOM     29  C   UNL     1     169.547 109.942 217.696  1.00  0.00     0.185 C 
ATOM     30  O   UNL     1     170.229 109.434 216.772  1.00  0.00    -0.289 OA
BRANCH  29  31
ATOM     31  C   UNL     1     168.126 109.949 217.571  1.00  0.00     0.022 A 
ATOM     32  C   UNL     1     167.491 110.612 216.491  1.00  0.00     0.012 A 
ATOM     33  C   UNL     1     167.302 109.302 218.529  1.00  0.00     0.012 A 
ATOM     34  C   UNL     1     166.091 110.585 216.347  1.00  0.00     0.001 A 
ATOM     35  C   UNL     1     165.903 109.288 218.395  1.00  0.00     0.001 A 
ATOM     36  C   UNL     1     165.297 109.915 217.293  1.00  0.00     0.000 A 
ENDBRANCH  29  31
ENDBRANCH  28  29
ENDBRANCH   3  27
TORSDOF 7
ENDMDL
MODEL 12
REMARK VINA RESULT:    -8.029      3.469      6.215
REMARK INTER + INTRA:         -12.392
REMARK INTER:                 -11.129
REMARK INTRA:                  -1.263
REMARK UNBOUND:                -1.078
REMARK SMILES COc1ccc(-c2nc(Nc3cccc(/C=C/C(=O)c4ccccc4)c3)c3ccccc3n2)cc1
REMARK SMILES IDX 11 1 26 2 15 3 14 4 13 5 12 6 10 7 9 9 7 10 33 11 8 12 32 13
REMARK SMILES IDX 27 14 31 15 28 16 30 17 29 18 6 19 3 20 4 21 35 22 5 23
REMARK SMILES IDX 34 24 2 25 1 26 16 27 17 28 18 29 19 30 20 31 21 32 25 33
REMARK SMILES IDX 22 34 24 35 23 36
REMARK H PARENT 10 8
REMARK Flexibility Score: inf
ROOT
ATOM      1  C   UNL     1     169.904 115.234 226.574  1.00  0.00     0.040 A 
ATOM      2  C   UNL     1     170.177 116.629 226.590  1.00  0.00     0.034 A 
ATOM      3  C   UNL     1     169.224 117.577 227.052  1.00  0.00    -0.023 A 
ATOM      4  C   UNL     1     167.939 117.091 227.402  1.00  0.00     0.008 A 
ATOM      5  C   UNL     1     167.635 115.721 227.339  1.00  0.00     0.003 A 
ATOM      6  C   UNL     1     168.611 114.800 226.934  1.00  0.00     0.026 A 
ENDROOT
BRANCH   1   7
ATOM      7  N   UNL     1     170.794 114.243 226.240  1.00  0.00    -0.340 N 
ATOM      8  H   UNL     1     171.255 113.784 227.013  1.00  0.00     0.168 HD
BRANCH   7   9
ATOM      9  C   UNL     1     171.139 113.790 224.993  1.00  0.00     0.142 A 
ATOM     10  C   UNL     1     170.417 112.865 222.909  1.00  0.00     0.162 A 
ATOM     11  N   UNL     1     171.667 112.981 222.400  1.00  0.00    -0.228 NA
ATOM     12  N   UNL     1     170.183 113.279 224.174  1.00  0.00    -0.210 NA
ATOM     13  C   UNL     1     172.690 113.468 223.144  1.00  0.00     0.076 A 
ATOM     14  C   UNL     1     172.467 113.882 224.492  1.00  0.00     0.043 A 
ATOM     15  C   UNL     1     173.972 113.555 222.568  1.00  0.00     0.029 A 
ATOM     16  C   UNL     1     173.571 114.357 225.242  1.00  0.00     0.014 A 
ATOM     17  C   UNL     1     175.053 114.032 223.328  1.00  0.00     0.002 A 
ATOM     18  C   UNL     1     174.853 114.431 224.663  1.00  0.00     0.001 A 
BRANCH  10  19
ATOM     19  C   UNL     1     169.366 112.316 222.163  1.00  0.00     0.020 A 
ATOM     20  C   UNL     1     167.272 111.174 220.650  1.00  0.00     0.118 A 
ATOM     21  C   UNL     1     167.103 111.409 222.029  1.00  0.00     0.047 A 
ATOM     22  C   UNL     1     168.481 111.534 220.023  1.00  0.00     0.047 A 
ATOM     23  C   UNL     1     168.145 111.975 222.784  1.00  0.00     0.016 A 
ATOM     24  C   UNL     1     169.529 112.089 220.779  1.00  0.00     0.016 A 
BRANCH  20  25
ATOM     25  O   UNL     1     166.261 110.610 219.924  1.00  0.00    -0.497 OA
ATOM     26  C   UNL     1     166.742 109.650 218.968  1.00  0.00     0.278 C 
ENDBRANCH  20  25
ENDBRANCH  10  19
ENDBRANCH   7   9
ENDBRANCH   1   7
BRANCH   3  27
ATOM     27  C   UNL     1     169.472 118.952 227.192  1.00  0.00     0.012 C 
ATOM     28  C   UNL     1     169.833 119.591 228.322  1.00  0.00     0.053 C 
BRANCH  28  29
ATOM     29  C   UNL     1     170.043 120.966 228.421  1.00  0.00     0.185 C 
ATOM     30  O   UNL     1     170.737 121.544 227.547  1.00  0.00    -0.289 OA
BRANCH  29  31
ATOM     31  C   UNL     1     169.473 121.749 229.467  1.00  0.00     0.022 A 
ATOM     32  C   UNL     1     169.445 121.276 230.804  1.00  0.00     0.012 A 
ATOM     33  C   UNL     1     168.904 123.023 229.203  1.00  0.00     0.012 A 
ATOM     34  C   UNL     1     168.917 122.066 231.841  1.00  0.00     0.001 A 
ATOM     35  C   UNL     1     168.363 123.808 230.236  1.00  0.00     0.001 A 
ATOM     36  C   UNL     1     168.385 123.336 231.560  1.00  0.00     0.000 A 
ENDBRANCH  29  31
ENDBRANCH  28  29
ENDBRANCH   3  27
TORSDOF 7
ENDMDL
MODEL 13
REMARK VINA RESULT:    -7.880      3.560      7.143
REMARK INTER + INTRA:         -12.183
REMARK INTER:                 -10.971
REMARK INTRA:                  -1.212
REMARK UNBOUND:                -1.078
REMARK SMILES COc1ccc(-c2nc(Nc3cccc(/C=C/C(=O)c4ccccc4)c3)c3ccccc3n2)cc1
REMARK SMILES IDX 11 1 26 2 15 3 14 4 13 5 12 6 10 7 9 9 7 10 33 11 8 12 32 13
REMARK SMILES IDX 27 14 31 15 28 16 30 17 29 18 6 19 3 20 4 21 35 22 5 23
REMARK SMILES IDX 34 24 2 25 1 26 16 27 17 28 18 29 19 30 20 31 21 32 25 33
REMARK SMILES IDX 22 34 24 35 23 36
REMARK H PARENT 10 8
REMARK Flexibility Score: inf
ROOT
ATOM      1  C   UNL     1     168.283 116.938 227.057  1.00  0.00     0.040 A 
ATOM      2  C   UNL     1     167.604 117.651 228.081  1.00  0.00     0.034 A 
ATOM      3  C   UNL     1     167.772 119.051 228.262  1.00  0.00    -0.023 A 
ATOM      4  C   UNL     1     168.731 119.702 227.446  1.00  0.00     0.008 A 
ATOM      5  C   UNL     1     169.452 119.001 226.466  1.00  0.00     0.003 A 
ATOM      6  C   UNL     1     169.226 117.631 226.270  1.00  0.00     0.026 A 
ENDROOT
BRANCH   1   7
ATOM      7  N   UNL     1     168.107 115.611 226.746  1.00  0.00    -0.340 N 
ATOM      8  H   UNL     1     167.191 115.231 226.936  1.00  0.00     0.168 HD
BRANCH   7   9
ATOM      9  C   UNL     1     169.012 114.733 226.211  1.00  0.00     0.142 A 
ATOM     10  C   UNL     1     169.737 113.496 224.297  1.00  0.00     0.162 A 
ATOM     11  N   UNL     1     170.845 113.082 224.956  1.00  0.00    -0.228 NA
ATOM     12  N   UNL     1     168.864 114.312 224.928  1.00  0.00    -0.210 NA
ATOM     13  C   UNL     1     171.075 113.440 226.244  1.00  0.00     0.076 A 
ATOM     14  C   UNL     1     170.148 114.276 226.936  1.00  0.00     0.043 A 
ATOM     15  C   UNL     1     172.238 112.971 226.886  1.00  0.00     0.029 A 
ATOM     16  C   UNL     1     170.414 114.601 228.289  1.00  0.00     0.014 A 
ATOM     17  C   UNL     1     172.484 113.307 228.226  1.00  0.00     0.002 A 
ATOM     18  C   UNL     1     171.574 114.120 228.927  1.00  0.00     0.001 A 
BRANCH  10  19
ATOM     19  C   UNL     1     169.467 113.089 222.983  1.00  0.00     0.020 A 
ATOM     20  C   UNL     1     168.913 112.312 220.325  1.00  0.00     0.118 A 
ATOM     21  C   UNL     1     170.197 112.110 220.869  1.00  0.00     0.047 A 
ATOM     22  C   UNL     1     167.898 112.881 221.120  1.00  0.00     0.047 A 
ATOM     23  C   UNL     1     170.475 112.499 222.191  1.00  0.00     0.016 A 
ATOM     24  C   UNL     1     168.178 113.281 222.439  1.00  0.00     0.016 A 
BRANCH  20  25
ATOM     25  O   UNL     1     168.652 111.946 219.034  1.00  0.00    -0.497 OA
ATOM     26  C   UNL     1     169.435 112.689 218.085  1.00  0.00     0.278 C 
ENDBRANCH  20  25
ENDBRANCH  10  19
ENDBRANCH   7   9
ENDBRANCH   1   7
BRANCH   3  27
ATOM     27  C   UNL     1     167.050 119.828 229.183  1.00  0.00     0.012 C 
ATOM     28  C   UNL     1     167.012 121.174 229.242  1.00  0.00     0.053 C 
BRANCH  28  29
ATOM     29  C   UNL     1     166.301 121.904 230.193  1.00  0.00     0.185 C 
ATOM     30  O   UNL     1     165.117 121.577 230.457  1.00  0.00    -0.289 OA
BRANCH  29  31
ATOM     31  C   UNL     1     166.881 122.998 230.901  1.00  0.00     0.022 A 
ATOM     32  C   UNL     1     166.148 123.699 231.892  1.00  0.00     0.012 A 
ATOM     33  C   UNL     1     168.207 123.427 230.630  1.00  0.00     0.012 A 
ATOM     34  C   UNL     1     166.734 124.752 232.617  1.00  0.00     0.001 A 
ATOM     35  C   UNL     1     168.789 124.489 231.343  1.00  0.00     0.001 A 
ATOM     36  C   UNL     1     168.057 125.142 232.351  1.00  0.00     0.000 A 
ENDBRANCH  29  31
ENDBRANCH  28  29
ENDBRANCH   3  27
TORSDOF 7
ENDMDL
MODEL 14
REMARK VINA RESULT:    -7.847      3.387      9.501
REMARK INTER + INTRA:         -12.137
REMARK INTER:                 -10.771
REMARK INTRA:                  -1.366
REMARK UNBOUND:                -1.078
REMARK SMILES COc1ccc(-c2nc(Nc3cccc(/C=C/C(=O)c4ccccc4)c3)c3ccccc3n2)cc1
REMARK SMILES IDX 11 1 26 2 15 3 14 4 13 5 12 6 10 7 9 9 7 10 33 11 8 12 32 13
REMARK SMILES IDX 27 14 31 15 28 16 30 17 29 18 6 19 3 20 4 21 35 22 5 23
REMARK SMILES IDX 34 24 2 25 1 26 16 27 17 28 18 29 19 30 20 31 21 32 25 33
REMARK SMILES IDX 22 34 24 35 23 36
REMARK H PARENT 10 8
REMARK Flexibility Score: inf
ROOT
ATOM      1  C   UNL     1     169.885 113.351 222.914  1.00  0.00     0.040 A 
ATOM      2  C   UNL     1     170.245 112.936 221.603  1.00  0.00     0.034 A 
ATOM      3  C   UNL     1     169.471 111.992 220.874  1.00  0.00    -0.023 A 
ATOM      4  C   UNL     1     168.375 111.392 221.544  1.00  0.00     0.008 A 
ATOM      5  C   UNL     1     168.039 111.750 222.859  1.00  0.00     0.003 A 
ATOM      6  C   UNL     1     168.785 112.726 223.537  1.00  0.00     0.026 A 
ENDROOT
BRANCH   1   7
ATOM      7  N   UNL     1     170.512 114.326 223.651  1.00  0.00    -0.340 N 
ATOM      8  H   UNL     1     170.161 115.265 223.532  1.00  0.00     0.168 HD
BRANCH   7   9
ATOM      9  C   UNL     1     171.554 114.192 224.531  1.00  0.00     0.142 A 
ATOM     10  C   UNL     1     173.487 112.952 225.200  1.00  0.00     0.162 A 
ATOM     11  N   UNL     1     173.782 113.878 226.142  1.00  0.00    -0.228 NA
ATOM     12  N   UNL     1     172.400 113.135 224.418  1.00  0.00    -0.210 NA
ATOM     13  C   UNL     1     172.991 114.961 226.339  1.00  0.00     0.076 A 
ATOM     14  C   UNL     1     171.823 115.155 225.543  1.00  0.00     0.043 A 
ATOM     15  C   UNL     1     173.339 115.887 227.343  1.00  0.00     0.029 A 
ATOM     16  C   UNL     1     171.010 116.286 225.803  1.00  0.00     0.014 A 
ATOM     17  C   UNL     1     172.522 117.004 227.582  1.00  0.00     0.002 A 
ATOM     18  C   UNL     1     171.359 117.202 226.815  1.00  0.00     0.001 A 
BRANCH  10  19
ATOM     19  C   UNL     1     174.271 111.803 225.024  1.00  0.00     0.020 A 
ATOM     20  C   UNL     1     175.871 109.508 224.636  1.00  0.00     0.118 A 
ATOM     21  C   UNL     1     175.930 110.216 225.853  1.00  0.00     0.047 A 
ATOM     22  C   UNL     1     174.992 109.936 223.621  1.00  0.00     0.047 A 
ATOM     23  C   UNL     1     175.136 111.360 226.047  1.00  0.00     0.016 A 
ATOM     24  C   UNL     1     174.205 111.087 223.809  1.00  0.00     0.016 A 
BRANCH  20  25
ATOM     25  O   UNL     1     176.656 108.406 224.447  1.00  0.00    -0.497 OA
ATOM     26  C   UNL     1     177.936 108.735 223.882  1.00  0.00     0.278 C 
ENDBRANCH  20  25
ENDBRANCH  10  19
ENDBRANCH   7   9
ENDBRANCH   1   7
BRANCH   3  27
ATOM     27  C   UNL     1     169.714 111.624 219.540  1.00  0.00     0.012 C 
ATOM     28  C   UNL     1     169.836 112.456 218.488  1.00  0.00     0.053 C 
BRANCH  28  29
ATOM     29  C   UNL     1     170.051 112.043 217.174  1.00  0.00     0.185 C 
ATOM     30  O   UNL     1     169.505 112.675 216.236  1.00  0.00    -0.289 OA
BRANCH  29  31
ATOM     31  C   UNL     1     170.897 110.940 216.852  1.00  0.00     0.022 A 
ATOM     32  C   UNL     1     170.365 109.638 216.671  1.00  0.00     0.012 A 
ATOM     33  C   UNL     1     172.300 111.108 216.714  1.00  0.00     0.012 A 
ATOM     34  C   UNL     1     171.195 108.559 216.315  1.00  0.00     0.001 A 
ATOM     35  C   UNL     1     173.133 110.027 216.374  1.00  0.00     0.001 A 
ATOM     36  C   UNL     1     172.577 108.755 216.157  1.00  0.00     0.000 A 
ENDBRANCH  29  31
ENDBRANCH  28  29
ENDBRANCH   3  27
TORSDOF 7
ENDMDL
MODEL 15
REMARK VINA RESULT:    -7.838      4.558      9.537
REMARK INTER + INTRA:         -12.123
REMARK INTER:                 -11.007
REMARK INTRA:                  -1.116
REMARK UNBOUND:                -1.078
REMARK SMILES COc1ccc(-c2nc(Nc3cccc(/C=C/C(=O)c4ccccc4)c3)c3ccccc3n2)cc1
REMARK SMILES IDX 11 1 26 2 15 3 14 4 13 5 12 6 10 7 9 9 7 10 33 11 8 12 32 13
REMARK SMILES IDX 27 14 31 15 28 16 30 17 29 18 6 19 3 20 4 21 35 22 5 23
REMARK SMILES IDX 34 24 2 25 1 26 16 27 17 28 18 29 19 30 20 31 21 32 25 33
REMARK SMILES IDX 22 34 24 35 23 36
REMARK H PARENT 10 8
REMARK Flexibility Score: inf
ROOT
ATOM      1  C   UNL     1     173.122 108.930 220.454  1.00  0.00     0.040 A 
ATOM      2  C   UNL     1     172.153 109.603 219.662  1.00  0.00     0.034 A 
ATOM      3  C   UNL     1     171.860 109.202 218.330  1.00  0.00    -0.023 A 
ATOM      4  C   UNL     1     172.650 108.165 217.773  1.00  0.00     0.008 A 
ATOM      5  C   UNL     1     173.651 107.527 218.524  1.00  0.00     0.003 A 
ATOM      6  C   UNL     1     173.881 107.904 219.855  1.00  0.00     0.026 A 
ENDROOT
BRANCH   1   7
ATOM      7  N   UNL     1     173.399 109.183 221.775  1.00  0.00    -0.340 N 
ATOM      8  H   UNL     1     173.971 108.496 222.246  1.00  0.00     0.168 HD
BRANCH   7   9
ATOM      9  C   UNL     1     173.003 110.248 222.542  1.00  0.00     0.142 A 
ATOM     10  C   UNL     1     173.620 112.262 223.674  1.00  0.00     0.162 A 
ATOM     11  N   UNL     1     172.323 112.521 223.966  1.00  0.00    -0.228 NA
ATOM     12  N   UNL     1     173.924 111.151 222.967  1.00  0.00    -0.210 NA
ATOM     13  C   UNL     1     171.333 111.672 223.595  1.00  0.00     0.076 A 
ATOM     14  C   UNL     1     171.639 110.479 222.874  1.00  0.00     0.043 A 
ATOM     15  C   UNL     1     170.003 111.984 223.937  1.00  0.00     0.029 A 
ATOM     16  C   UNL     1     170.577 109.607 222.532  1.00  0.00     0.014 A 
ATOM     17  C   UNL     1     168.963 111.108 223.586  1.00  0.00     0.002 A 
ATOM     18  C   UNL     1     169.250 109.921 222.886  1.00  0.00     0.001 A 
BRANCH  10  19
ATOM     19  C   UNL     1     174.654 113.108 224.097  1.00  0.00     0.020 A 
ATOM     20  C   UNL     1     176.737 114.833 224.911  1.00  0.00     0.118 A 
ATOM     21  C   UNL     1     175.499 114.850 225.584  1.00  0.00     0.047 A 
ATOM     22  C   UNL     1     176.940 113.934 223.845  1.00  0.00     0.047 A 
ATOM     23  C   UNL     1     174.460 113.994 225.179  1.00  0.00     0.016 A 
ATOM     24  C   UNL     1     175.898 113.085 223.431  1.00  0.00     0.016 A 
BRANCH  20  25
ATOM     25  O   UNL     1     177.739 115.677 225.300  1.00  0.00    -0.497 OA
ATOM     26  C   UNL     1     177.424 116.378 226.515  1.00  0.00     0.278 C 
ENDBRANCH  20  25
ENDBRANCH  10  19
ENDBRANCH   7   9
ENDBRANCH   1   7
BRANCH   3  27
ATOM     27  C   UNL     1     170.841 109.756 217.537  1.00  0.00     0.012 C 
ATOM     28  C   UNL     1     170.062 110.809 217.852  1.00  0.00     0.053 C 
BRANCH  28  29
ATOM     29  C   UNL     1     169.043 111.309 217.043  1.00  0.00     0.185 C 
ATOM     30  O   UNL     1     169.296 112.250 216.250  1.00  0.00    -0.289 OA
BRANCH  29  31
ATOM     31  C   UNL     1     167.723 110.768 217.062  1.00  0.00     0.022 A 
ATOM     32  C   UNL     1     167.223 110.100 218.208  1.00  0.00     0.012 A 
ATOM     33  C   UNL     1     166.872 110.872 215.930  1.00  0.00     0.012 A 
ATOM     34  C   UNL     1     165.907 109.601 218.239  1.00  0.00     0.001 A 
ATOM     35  C   UNL     1     165.563 110.360 215.954  1.00  0.00     0.001 A 
ATOM     36  C   UNL     1     165.073 109.740 217.117  1.00  0.00     0.000 A 
ENDBRANCH  29  31
ENDBRANCH  28  29
ENDBRANCH   3  27
TORSDOF 7
ENDMDL
MODEL 16
REMARK VINA RESULT:    -7.770      3.370      5.708
REMARK INTER + INTRA:         -12.028
REMARK INTER:                 -10.789
REMARK INTRA:                  -1.239
REMARK UNBOUND:                -1.078
REMARK SMILES COc1ccc(-c2nc(Nc3cccc(/C=C/C(=O)c4ccccc4)c3)c3ccccc3n2)cc1
REMARK SMILES IDX 11 1 26 2 15 3 14 4 13 5 12 6 10 7 9 9 7 10 33 11 8 12 32 13
REMARK SMILES IDX 27 14 31 15 28 16 30 17 29 18 6 19 3 20 4 21 35 22 5 23
REMARK SMILES IDX 34 24 2 25 1 26 16 27 17 28 18 29 19 30 20 31 21 32 25 33
REMARK SMILES IDX 22 34 24 35 23 36
REMARK H PARENT 10 8
REMARK Flexibility Score: inf
ROOT
ATOM      1  C   UNL     1     170.012 115.481 226.005  1.00  0.00     0.040 A 
ATOM      2  C   UNL     1     169.329 116.644 226.453  1.00  0.00     0.034 A 
ATOM      3  C   UNL     1     168.447 116.616 227.568  1.00  0.00    -0.023 A 
ATOM      4  C   UNL     1     168.185 115.355 228.160  1.00  0.00     0.008 A 
ATOM      5  C   UNL     1     168.808 114.187 227.693  1.00  0.00     0.003 A 
ATOM      6  C   UNL     1     169.718 114.250 226.628  1.00  0.00     0.026 A 
ENDROOT
BRANCH   1   7
ATOM      7  N   UNL     1     170.952 115.434 225.005  1.00  0.00    -0.340 N 
ATOM      8  H   UNL     1     171.477 116.283 224.852  1.00  0.00     0.168 HD
BRANCH   7   9
ATOM      9  C   UNL     1     171.276 114.383 224.187  1.00  0.00     0.142 A 
ATOM     10  C   UNL     1     170.534 112.757 222.597  1.00  0.00     0.162 A 
ATOM     11  N   UNL     1     171.808 112.351 222.385  1.00  0.00    -0.228 NA
ATOM     12  N   UNL     1     170.302 113.760 223.473  1.00  0.00    -0.210 NA
ATOM     13  C   UNL     1     172.847 112.903 223.059  1.00  0.00     0.076 A 
ATOM     14  C   UNL     1     172.618 113.943 224.010  1.00  0.00     0.043 A 
ATOM     15  C   UNL     1     174.151 112.433 222.809  1.00  0.00     0.029 A 
ATOM     16  C   UNL     1     173.729 114.471 224.712  1.00  0.00     0.014 A 
ATOM     17  C   UNL     1     175.240 112.972 223.513  1.00  0.00     0.002 A 
ATOM     18  C   UNL     1     175.029 113.988 224.464  1.00  0.00     0.001 A 
BRANCH  10  19
ATOM     19  C   UNL     1     169.451 112.157 221.942  1.00  0.00     0.020 A 
ATOM     20  C   UNL     1     167.260 110.984 220.599  1.00  0.00     0.118 A 
ATOM     21  C   UNL     1     168.545 110.414 220.493  1.00  0.00     0.047 A 
ATOM     22  C   UNL     1     167.068 112.128 221.398  1.00  0.00     0.047 A 
ATOM     23  C   UNL     1     169.636 110.998 221.159  1.00  0.00     0.016 A 
ATOM     24  C   UNL     1     168.161 112.721 222.055  1.00  0.00     0.016 A 
BRANCH  20  25
ATOM     25  O   UNL     1     166.205 110.420 219.938  1.00  0.00    -0.497 OA
ATOM     26  C   UNL     1     166.581 109.897 218.653  1.00  0.00     0.278 C 
ENDBRANCH  20  25
ENDBRANCH  10  19
ENDBRANCH   7   9
ENDBRANCH   1   7
BRANCH   3  27
ATOM     27  C   UNL     1     167.829 117.749 228.123  1.00  0.00     0.012 C 
ATOM     28  C   UNL     1     167.211 117.821 229.318  1.00  0.00     0.053 C 
BRANCH  28  29
ATOM     29  C   UNL     1     166.587 118.963 229.818  1.00  0.00     0.185 C 
ATOM     30  O   UNL     1     165.469 118.854 230.379  1.00  0.00    -0.289 OA
BRANCH  29  31
ATOM     31  C   UNL     1     167.188 120.254 229.740  1.00  0.00     0.022 A 
ATOM     32  C   UNL     1     166.618 121.280 228.945  1.00  0.00     0.012 A 
ATOM     33  C   UNL     1     168.383 120.550 230.448  1.00  0.00     0.012 A 
ATOM     34  C   UNL     1     167.191 122.565 228.900  1.00  0.00     0.001 A 
ATOM     35  C   UNL     1     168.965 121.829 230.392  1.00  0.00     0.001 A 
ATOM     36  C   UNL     1     168.358 122.843 229.631  1.00  0.00     0.000 A 
ENDBRANCH  29  31
ENDBRANCH  28  29
ENDBRANCH   3  27
TORSDOF 7
ENDMDL
MODEL 17
REMARK VINA RESULT:    -7.694      3.736      6.649
REMARK INTER + INTRA:         -11.921
REMARK INTER:                 -10.741
REMARK INTRA:                  -1.180
REMARK UNBOUND:                -1.078
REMARK SMILES COc1ccc(-c2nc(Nc3cccc(/C=C/C(=O)c4ccccc4)c3)c3ccccc3n2)cc1
REMARK SMILES IDX 11 1 26 2 15 3 14 4 13 5 12 6 10 7 9 9 7 10 33 11 8 12 32 13
REMARK SMILES IDX 27 14 31 15 28 16 30 17 29 18 6 19 3 20 4 21 35 22 5 23
REMARK SMILES IDX 34 24 2 25 1 26 16 27 17 28 18 29 19 30 20 31 21 32 25 33
REMARK SMILES IDX 22 34 24 35 23 36
REMARK H PARENT 10 8
REMARK Flexibility Score: inf
ROOT
ATOM      1  C   UNL     1     169.490 116.378 226.385  1.00  0.00     0.040 A 
ATOM      2  C   UNL     1     169.352 117.751 226.726  1.00  0.00     0.034 A 
ATOM      3  C   UNL     1     168.429 118.192 227.713  1.00  0.00    -0.023 A 
ATOM      4  C   UNL     1     167.565 117.219 228.277  1.00  0.00     0.008 A 
ATOM      5  C   UNL     1     167.650 115.867 227.909  1.00  0.00     0.003 A 
ATOM      6  C   UNL     1     168.608 115.449 226.975  1.00  0.00     0.026 A 
ENDROOT
BRANCH   1   7
ATOM      7  N   UNL     1     170.419 115.852 225.520  1.00  0.00    -0.340 N 
ATOM      8  H   UNL     1     171.056 116.514 225.101  1.00  0.00     0.168 HD
BRANCH   7   9
ATOM      9  C   UNL     1     170.598 114.544 225.152  1.00  0.00     0.142 A 
ATOM     10  C   UNL     1     169.907 112.725 223.761  1.00  0.00     0.162 A 
ATOM     11  N   UNL     1     170.936 111.965 224.206  1.00  0.00    -0.228 NA
ATOM     12  N   UNL     1     169.771 113.985 224.230  1.00  0.00    -0.210 NA
ATOM     13  C   UNL     1     171.807 112.431 225.135  1.00  0.00     0.076 A 
ATOM     14  C   UNL     1     171.661 113.749 225.663  1.00  0.00     0.043 A 
ATOM     15  C   UNL     1     172.852 111.593 225.571  1.00  0.00     0.029 A 
ATOM     16  C   UNL     1     172.577 114.183 226.653  1.00  0.00     0.014 A 
ATOM     17  C   UNL     1     173.751 112.044 226.551  1.00  0.00     0.002 A 
ATOM     18  C   UNL     1     173.613 113.336 227.092  1.00  0.00     0.001 A 
BRANCH  10  19
ATOM     19  C   UNL     1     168.973 112.233 222.839  1.00  0.00     0.020 A 
ATOM     20  C   UNL     1     167.085 111.208 221.006  1.00  0.00     0.118 A 
ATOM     21  C   UNL     1     166.860 112.448 221.636  1.00  0.00     0.047 A 
ATOM     22  C   UNL     1     168.268 110.492 221.276  1.00  0.00     0.047 A 
ATOM     23  C   UNL     1     167.798 112.959 222.550  1.00  0.00     0.016 A 
ATOM     24  C   UNL     1     169.201 110.995 222.200  1.00  0.00     0.016 A 
BRANCH  20  25
ATOM     25  O   UNL     1     166.163 110.709 220.129  1.00  0.00    -0.497 OA
ATOM     26  C   UNL     1     166.769 110.191 218.933  1.00  0.00     0.278 C 
ENDBRANCH  20  25
ENDBRANCH  10  19
ENDBRANCH   7   9
ENDBRANCH   1   7
BRANCH   3  27
ATOM     27  C   UNL     1     168.322 119.516 228.169  1.00  0.00     0.012 C 
ATOM     28  C   UNL     1     167.226 120.098 228.692  1.00  0.00     0.053 C 
BRANCH  28  29
ATOM     29  C   UNL     1     167.159 121.427 229.108  1.00  0.00     0.185 C 
ATOM     30  O   UNL     1     167.815 122.298 228.485  1.00  0.00    -0.289 OA
BRANCH  29  31
ATOM     31  C   UNL     1     166.344 121.840 230.205  1.00  0.00     0.022 A 
ATOM     32  C   UNL     1     166.761 122.881 231.073  1.00  0.00     0.012 A 
ATOM     33  C   UNL     1     165.097 121.215 230.468  1.00  0.00     0.012 A 
ATOM     34  C   UNL     1     165.939 123.313 232.131  1.00  0.00     0.001 A 
ATOM     35  C   UNL     1     164.282 121.636 231.533  1.00  0.00     0.001 A 
ATOM     36  C   UNL     1     164.696 122.699 232.355  1.00  0.00     0.000 A 
ENDBRANCH  29  31
ENDBRANCH  28  29
ENDBRANCH   3  27
TORSDOF 7
ENDMDL
MODEL 18
REMARK VINA RESULT:    -7.667      2.996     10.443
REMARK INTER + INTRA:         -11.883
REMARK INTER:                 -10.792
REMARK INTRA:                  -1.091
REMARK UNBOUND:                -1.078
REMARK SMILES COc1ccc(-c2nc(Nc3cccc(/C=C/C(=O)c4ccccc4)c3)c3ccccc3n2)cc1
REMARK SMILES IDX 11 1 26 2 15 3 14 4 13 5 12 6 10 7 9 9 7 10 33 11 8 12 32 13
REMARK SMILES IDX 27 14 31 15 28 16 30 17 29 18 6 19 3 20 4 21 35 22 5 23
REMARK SMILES IDX 34 24 2 25 1 26 16 27 17 28 18 29 19 30 20 31 21 32 25 33
REMARK SMILES IDX 22 34 24 35 23 36
REMARK H PARENT 10 8
REMARK Flexibility Score: inf
ROOT
ATOM      1  C   UNL     1     172.014 110.906 222.502  1.00  0.00     0.040 A 
ATOM      2  C   UNL     1     171.571 110.912 221.152  1.00  0.00     0.034 A 
ATOM      3  C   UNL     1     170.449 110.151 220.724  1.00  0.00    -0.023 A 
ATOM      4  C   UNL     1     169.845 109.291 221.676  1.00  0.00     0.008 A 
ATOM      5  C   UNL     1     170.306 109.230 223.001  1.00  0.00     0.003 A 
ATOM      6  C   UNL     1     171.378 110.035 223.412  1.00  0.00     0.026 A 
ENDROOT
BRANCH   1   7
ATOM      7  N   UNL     1     173.021 111.681 223.024  1.00  0.00    -0.340 N 
ATOM      8  H   UNL     1     173.810 111.847 222.417  1.00  0.00     0.168 HD
BRANCH   7   9
ATOM      9  C   UNL     1     173.095 112.263 224.262  1.00  0.00     0.142 A 
ATOM     10  C   UNL     1     172.137 113.784 225.841  1.00  0.00     0.162 A 
ATOM     11  N   UNL     1     173.036 113.408 226.781  1.00  0.00    -0.228 NA
ATOM     12  N   UNL     1     172.180 113.200 224.622  1.00  0.00    -0.210 NA
ATOM     13  C   UNL     1     173.996 112.489 226.513  1.00  0.00     0.076 A 
ATOM     14  C   UNL     1     174.075 111.885 225.222  1.00  0.00     0.043 A 
ATOM     15  C   UNL     1     174.914 112.145 227.525  1.00  0.00     0.029 A 
ATOM     16  C   UNL     1     175.111 110.951 224.978  1.00  0.00     0.014 A 
ATOM     17  C   UNL     1     175.932 111.214 227.263  1.00  0.00     0.002 A 
ATOM     18  C   UNL     1     176.032 110.620 225.991  1.00  0.00     0.001 A 
BRANCH  10  19
ATOM     19  C   UNL     1     171.174 114.769 226.094  1.00  0.00     0.020 A 
ATOM     20  C   UNL     1     169.218 116.733 226.639  1.00  0.00     0.118 A 
ATOM     21  C   UNL     1     170.587 117.068 226.674  1.00  0.00     0.047 A 
ATOM     22  C   UNL     1     168.828 115.420 226.308  1.00  0.00     0.047 A 
ATOM     23  C   UNL     1     171.562 116.091 226.405  1.00  0.00     0.016 A 
ATOM     24  C   UNL     1     169.802 114.439 226.050  1.00  0.00     0.016 A 
BRANCH  20  25
ATOM     25  O   UNL     1     168.275 117.683 226.915  1.00  0.00    -0.497 OA
ATOM     26  C   UNL     1     168.594 118.958 226.332  1.00  0.00     0.278 C 
ENDBRANCH  20  25
ENDBRANCH  10  19
ENDBRANCH   7   9
ENDBRANCH   1   7
BRANCH   3  27
ATOM     27  C   UNL     1     169.899 110.199 219.433  1.00  0.00     0.012 C 
ATOM     28  C   UNL     1     169.381 111.282 218.821  1.00  0.00     0.053 C 
BRANCH  28  29
ATOM     29  C   UNL     1     168.821 111.277 217.545  1.00  0.00     0.185 C 
ATOM     30  O   UNL     1     169.470 111.769 216.589  1.00  0.00    -0.289 OA
BRANCH  29  31
ATOM     31  C   UNL     1     167.542 110.704 217.278  1.00  0.00     0.022 A 
ATOM     32  C   UNL     1     166.870 109.928 218.256  1.00  0.00     0.012 A 
ATOM     33  C   UNL     1     166.906 110.884 216.022  1.00  0.00     0.012 A 
ATOM     34  C   UNL     1     165.592 109.396 218.005  1.00  0.00     0.001 A 
ATOM     35  C   UNL     1     165.635 110.340 215.764  1.00  0.00     0.001 A 
ATOM     36  C   UNL     1     164.969 109.610 216.764  1.00  0.00     0.000 A 
ENDBRANCH  29  31
ENDBRANCH  28  29
ENDBRANCH   3  27
TORSDOF 7
ENDMDL
MODEL 19
REMARK VINA RESULT:    -7.589      4.434      9.943
REMARK INTER + INTRA:         -11.773
REMARK INTER:                 -10.836
REMARK INTRA:                  -0.937
REMARK UNBOUND:                -1.078
REMARK SMILES COc1ccc(-c2nc(Nc3cccc(/C=C/C(=O)c4ccccc4)c3)c3ccccc3n2)cc1
REMARK SMILES IDX 11 1 26 2 15 3 14 4 13 5 12 6 10 7 9 9 7 10 33 11 8 12 32 13
REMARK SMILES IDX 27 14 31 15 28 16 30 17 29 18 6 19 3 20 4 21 35 22 5 23
REMARK SMILES IDX 34 24 2 25 1 26 16 27 17 28 18 29 19 30 20 31 21 32 25 33
REMARK SMILES IDX 22 34 24 35 23 36
REMARK H PARENT 10 8
REMARK Flexibility Score: inf
ROOT
ATOM      1  C   UNL     1     171.900 112.260 222.591  1.00  0.00     0.040 A 
ATOM      2  C   UNL     1     171.326 111.807 221.372  1.00  0.00     0.034 A 
ATOM      3  C   UNL     1     170.752 110.512 221.247  1.00  0.00    -0.023 A 
ATOM      4  C   UNL     1     170.866 109.639 222.358  1.00  0.00     0.008 A 
ATOM      5  C   UNL     1     171.480 110.052 223.551  1.00  0.00     0.003 A 
ATOM      6  C   UNL     1     171.988 111.354 223.668  1.00  0.00     0.026 A 
ENDROOT
BRANCH   1   7
ATOM      7  N   UNL     1     172.386 113.522 222.832  1.00  0.00    -0.340 N 
ATOM      8  H   UNL     1     172.261 114.193 222.088  1.00  0.00     0.168 HD
BRANCH   7   9
ATOM      9  C   UNL     1     173.018 113.993 223.953  1.00  0.00     0.142 A 
ATOM     10  C   UNL     1     175.085 114.445 225.067  1.00  0.00     0.162 A 
ATOM     11  N   UNL     1     174.429 115.045 226.088  1.00  0.00    -0.228 NA
ATOM     12  N   UNL     1     174.373 113.950 224.031  1.00  0.00    -0.210 NA
ATOM     13  C   UNL     1     173.076 115.127 226.107  1.00  0.00     0.076 A 
ATOM     14  C   UNL     1     172.306 114.582 225.035  1.00  0.00     0.043 A 
ATOM     15  C   UNL     1     172.444 115.751 227.201  1.00  0.00     0.029 A 
ATOM     16  C   UNL     1     170.894 114.664 225.111  1.00  0.00     0.014 A 
ATOM     17  C   UNL     1     171.043 115.824 227.255  1.00  0.00     0.002 A 
ATOM     18  C   UNL     1     170.269 115.280 226.212  1.00  0.00     0.001 A 
BRANCH  10  19
ATOM     19  C   UNL     1     176.480 114.312 225.065  1.00  0.00     0.020 A 
ATOM     20  C   UNL     1     179.293 114.058 225.101  1.00  0.00     0.118 A 
ATOM     21  C   UNL     1     178.483 112.932 224.850  1.00  0.00     0.047 A 
ATOM     22  C   UNL     1     178.695 115.316 225.310  1.00  0.00     0.047 A 
ATOM     23  C   UNL     1     177.082 113.057 224.834  1.00  0.00     0.016 A 
ATOM     24  C   UNL     1     177.294 115.440 225.306  1.00  0.00     0.016 A 
BRANCH  20  25
ATOM     25  O   UNL     1     180.653 113.928 225.130  1.00  0.00    -0.497 OA
ATOM     26  C   UNL     1     181.272 114.848 226.046  1.00  0.00     0.278 C 
ENDBRANCH  20  25
ENDBRANCH  10  19
ENDBRANCH   7   9
ENDBRANCH   1   7
BRANCH   3  27
ATOM     27  C   UNL     1     170.077 110.047 220.106  1.00  0.00     0.012 C 
ATOM     28  C   UNL     1     170.579 109.952 218.860  1.00  0.00     0.053 C 
BRANCH  28  29
ATOM     29  C   UNL     1     169.862 109.508 217.750  1.00  0.00     0.185 C 
ATOM     30  O   UNL     1     170.474 108.939 216.812  1.00  0.00    -0.289 OA
BRANCH  29  31
ATOM     31  C   UNL     1     168.446 109.653 217.652  1.00  0.00     0.022 A 
ATOM     32  C   UNL     1     167.861 110.464 216.646  1.00  0.00     0.012 A 
ATOM     33  C   UNL     1     167.577 108.998 218.564  1.00  0.00     0.012 A 
ATOM     34  C   UNL     1     166.464 110.575 216.527  1.00  0.00     0.001 A 
ATOM     35  C   UNL     1     166.181 109.120 218.455  1.00  0.00     0.001 A 
ATOM     36  C   UNL     1     165.623 109.895 217.424  1.00  0.00     0.000 A 
ENDBRANCH  29  31
ENDBRANCH  28  29
ENDBRANCH   3  27
TORSDOF 7
ENDMDL
MODEL 20
REMARK VINA RESULT:    -7.454      6.028     10.943
REMARK INTER + INTRA:         -11.582
REMARK INTER:                 -10.373
REMARK INTRA:                  -1.209
REMARK UNBOUND:                -1.078
REMARK SMILES COc1ccc(-c2nc(Nc3cccc(/C=C/C(=O)c4ccccc4)c3)c3ccccc3n2)cc1
REMARK SMILES IDX 11 1 26 2 15 3 14 4 13 5 12 6 10 7 9 9 7 10 33 11 8 12 32 13
REMARK SMILES IDX 27 14 31 15 28 16 30 17 29 18 6 19 3 20 4 21 35 22 5 23
REMARK SMILES IDX 34 24 2 25 1 26 16 27 17 28 18 29 19 30 20 31 21 32 25 33
REMARK SMILES IDX 22 34 24 35 23 36
REMARK H PARENT 10 8
REMARK Flexibility Score: inf
ROOT
ATOM      1  C   UNL     1     167.479 119.426 230.499  1.00  0.00     0.040 A 
ATOM      2  C   UNL     1     167.655 120.699 231.107  1.00  0.00     0.034 A 
ATOM      3  C   UNL     1     166.752 121.773 230.879  1.00  0.00    -0.023 A 
ATOM      4  C   UNL     1     165.718 121.565 229.932  1.00  0.00     0.008 A 
ATOM      5  C   UNL     1     165.564 120.331 229.280  1.00  0.00     0.003 A 
ATOM      6  C   UNL     1     166.434 119.269 229.565  1.00  0.00     0.026 A 
ENDROOT
BRANCH   1   7
ATOM      7  N   UNL     1     168.240 118.307 230.737  1.00  0.00    -0.340 N 
ATOM      8  H   UNL     1     169.007 118.424 231.383  1.00  0.00     0.168 HD
BRANCH   7   9
ATOM      9  C   UNL     1     168.094 117.049 230.214  1.00  0.00     0.142 A 
ATOM     10  C   UNL     1     168.738 115.473 228.534  1.00  0.00     0.162 A 
ATOM     11  N   UNL     1     168.010 114.502 229.135  1.00  0.00    -0.228 NA
ATOM     12  N   UNL     1     168.771 116.706 229.088  1.00  0.00    -0.210 NA
ATOM     13  C   UNL     1     167.290 114.751 230.257  1.00  0.00     0.076 A 
ATOM     14  C   UNL     1     167.290 116.055 230.838  1.00  0.00     0.043 A 
ATOM     15  C   UNL     1     166.541 113.707 230.833  1.00  0.00     0.029 A 
ATOM     16  C   UNL     1     166.500 116.278 231.993  1.00  0.00     0.014 A 
ATOM     17  C   UNL     1     165.767 113.948 231.980  1.00  0.00     0.002 A 
ATOM     18  C   UNL     1     165.745 115.231 232.558  1.00  0.00     0.001 A 
BRANCH  10  19
ATOM     19  C   UNL     1     169.444 115.236 227.347  1.00  0.00     0.020 A 
ATOM     20  C   UNL     1     170.900 114.742 224.978  1.00  0.00     0.118 A 
ATOM     21  C   UNL     1     169.634 114.153 225.168  1.00  0.00     0.047 A 
ATOM     22  C   UNL     1     171.427 115.598 225.965  1.00  0.00     0.047 A 
ATOM     23  C   UNL     1     168.909 114.396 226.347  1.00  0.00     0.016 A 
ATOM     24  C   UNL     1     170.708 115.834 227.151  1.00  0.00     0.016 A 
BRANCH  20  25
ATOM     25  O   UNL     1     171.608 114.490 223.836  1.00  0.00    -0.497 OA
ATOM     26  C   UNL     1     170.878 113.668 222.910  1.00  0.00     0.278 C 
ENDBRANCH  20  25
ENDBRANCH  10  19
ENDBRANCH   7   9
ENDBRANCH   1   7
BRANCH   3  27
ATOM     27  C   UNL     1     166.811 123.016 231.532  1.00  0.00     0.012 C 
ATOM     28  C   UNL     1     165.895 123.520 232.381  1.00  0.00     0.053 C 
BRANCH  28  29
ATOM     29  C   UNL     1     165.983 124.773 232.986  1.00  0.00     0.185 C 
ATOM     30  O   UNL     1     167.071 125.128 233.504  1.00  0.00    -0.289 OA
BRANCH  29  31
ATOM     31  C   UNL     1     164.884 125.682 233.015  1.00  0.00     0.022 A 
ATOM     32  C   UNL     1     165.056 127.048 232.672  1.00  0.00     0.012 A 
ATOM     33  C   UNL     1     163.586 125.253 233.397  1.00  0.00     0.012 A 
ATOM     34  C   UNL     1     163.964 127.935 232.664  1.00  0.00     0.001 A 
ATOM     35  C   UNL     1     162.497 126.142 233.404  1.00  0.00     0.001 A 
ATOM     36  C   UNL     1     162.683 127.481 233.019  1.00  0.00     0.000 A 
ENDBRANCH  29  31
ENDBRANCH  28  29
ENDBRANCH   3  27
TORSDOF 7
ENDMDL
